data/public_benchmarks/arpae_go/extracted/Challenge_1_Original_Dataset_2_Scenarios/Original_Dataset_Offline_Edition_2/Network_01O-020/scenario_9/case.raw
0,100.0,33,0,0,60.0
'GO Competition -- Network Model 01'
'Date: 2019-02-11'
1,'            ',138.0,1,1,1,1,1.0,0.0,1.1,0.9,1.1,0.9
2,'            ',138.0,1,1,1,1,1.0,0.0,1.1,0.9,1.1,0.9
3,'            ',138.0,1,1,1,1,1.0,0.0,1.1,0.9,1.1,0.9
4,'            ',138.0,1,1,1,1,1.0,0.0,1.1,0.9,1.1,0.9
5,'            ',138.0,1,1,1,1,1.0,0.0,1.1,0.9,1.1,0.9
6,'            ',138.0,1,1,1,1,1.0,0.0,1.1,0.9,1.1,0.9
7,'            ',345.0,1,1,1,1,1.0,0.0,1.1,0.9,1.1,0.9
8,'            ',138.0,1,1,1,1,1.0,0.0,1.1,0.9,1.1,0.9
9,'            ',13.8,2,1,1,1,1.0,0.0,1.1,0.9,1.1,0.9
10,'            ',138.0,1,1,1,1,1.0,0.0,1.1,0.9,1.1,0.9
11,'            ',138.0,1,1,1,1,1.0,0.0,1.1,0.9,1.1,0.9
12,'            ',138.0,1,1,1,1,1.0,0.0,1.1,0.9,1.1,0.9
13,'            ',138.0,1,1,1,1,1.0,0.0,1.1,0.9,1.1,0.9
14,'            ',345.0,1,1,1,1,1.0,0.0,1.1,0.9,1.1,0.9
15,'            ',138.0,1,1,1,1,1.0,0.0,1.1,0.9,1.1,0.9
16,'            ',13.8,2,1,1,1,1.0,0.0,1.1,0.9,1.1,0.9
17,'            ',13.8,3,1,1,1,1.0,0.0,1.1,0.9,1.1,0.9
18,'            ',13.8,2,1,1,1,1.0,0.0,1.1,0.9,1.1,0.9
19,'            ',138.0,1,1,1,1,1.0,0.0,1.1,0.9,1.1,0.9
20,'            ',138.0,1,1,1,1,1.0,0.0,1.1,0.9,1.1,0.9
21,'            ',138.0,1,1,1,1,1.0,0.0,1.1,0.9,1.1,0.9
22,'            ',138.0,1,1,1,1,1.0,0.0,1.1,0.9,1.1,0.9
23,'            ',345.0,1,1,1,1,1.0,0.0,1.1,0.9,1.1,0.9
24,'            ',138.0,1,1,1,1,1.0,0.0,1.1,0.9,1.1,0.9
25,'            ',138.0,1,1,1,1,1.0,0.0,1.1,0.9,1.1,0.9
26,'            ',138.0,1,1,1,1,1.0,0.0,1.1,0.9,1.1,0.9
27,'            ',138.0,1,1,1,1,1.0,0.0,1.1,0.9,1.1,0.9
28,'            ',138.0,1,1,1,1,1.0,0.0,1.1,0.9,1.1,0.9
29,'            ',138.0,1,1,1,1,1.0,0.0,1.1,0.9,1.1,0.9
30,'            ',138.0,1,1,1,1,1.0,0.0,1.1,0.9,1.1,0.9
31,'            ',138.0,1,1,1,1,1.0,0.0,1.1,0.9,1.1,0.9
32,'            ',138.0,1,1,1,1,1.0,0.0,1.1,0.9,1.1,0.9
33,'            ',138.0,1,1,1,1,1.0,0.0,1.1,0.9,1.1,0.9
34,'            ',138.0,1,1,1,1,1.0,0.0,1.1,0.9,1.1,0.9
35,'            ',138.0,1,1,1,1,1.0,0.0,1.1,0.9,1.1,0.9
36,'            ',138.0,1,1,1,1,1.0,0.0,1.1,0.9,1.1,0.9
37,'            ',138.0,1,1,1,1,1.0,0.0,1.1,0.9,1.1,0.9
38,'            ',138.0,1,1,1,1,1.0,0.0,1.1,0.9,1.1,0.9
39,'            ',345.0,1,1,1,1,1.0,0.0,1.1,0.9,1.1,0.9
40,'            ',138.0,1,1,1,1,1.0,0.0,1.1,0.9,1.1,0.9
41,'            ',138.0,1,1,1,1,1.0,0.0,1.1,0.9,1.1,0.9
42,'            ',138.0,1,1,1,1,1.0,0.0,1.1,0.9,1.1,0.9
43,'            ',138.0,1,1,1,1,1.0,0.0,1.1,0.9,1.1,0.9
44,'            ',138.0,1,1,1,1,1.0,0.0,1.1,0.9,1.1,0.9
45,'            ',138.0,1,1,1,1,1.0,0.0,1.1,0.9,1.1,0.9
46,'            ',138.0,1,1,1,1,1.0,0.0,1.1,0.9,1.1,0.9
47,'            ',138.0,1,1,1,1,1.0,0.0,1.1,0.9,1.1,0.9
48,'            ',138.0,1,1,1,1,1.0,0.0,1.1,0.9,1.1,0.9
49,'            ',13.8,2,1,1,1,1.0,0.0,1.1,0.9,1.1,0.9
50,'            ',13.8,2,1,1,1,1.0,0.0,1.1,0.9,1.1,0.9
51,'            ',138.0,1,1,1,1,1.0,0.0,1.1,0.9,1.1,0.9
52,'            ',138.0,1,1,1,1,1.0,0.0,1.1,0.9,1.1,0.9
53,'            ',138.0,1,1,1,1,1.0,0.0,1.1,0.9,1.1,0.9
54,'            ',138.0,1,1,1,1,1.0,0.0,1.1,0.9,1.1,0.9
55,'            ',138.0,1,1,1,1,1.0,0.0,1.1,0.9,1.1,0.9
56,'            ',138.0,1,1,1,1,1.0,0.0,1.1,0.9,1.1,0.9
57,'            ',345.0,1,1,1,1,1.0,0.0,1.1,0.9,1.1,0.9
58,'            ',138.0,1,1,1,1,1.0,0.0,1.1,0.9,1.1,0.9
59,'            ',138.0,1,1,1,1,1.0,0.0,1.1,0.9,1.1,0.9
60,'            ',138.0,1,1,1,1,1.0,0.0,1.1,0.9,1.1,0.9
61,'            ',138.0,1,1,1,1,1.0,0.0,1.1,0.9,1.1,0.9
62,'            ',138.0,1,1,1,1,1.0,0.0,1.1,0.9,1.1,0.9
63,'            ',13.8,2,1,1,1,1.0,0.0,1.1,0.9,1.1,0.9
64,'            ',138.0,1,1,1,1,1.0,0.0,1.1,0.9,1.1,0.9
65,'            ',345.0,1,1,1,1,1.0,0.0,1.1,0.9,1.1,0.9
66,'            ',138.0,1,1,1,1,1.0,0.0,1.1,0.9,1.1,0.9
67,'            ',138.0,1,1,1,1,1.0,0.0,1.1,0.9,1.1,0.9
68,'            ',138.0,1,1,1,1,1.0,0.0,1.1,0.9,1.1,0.9
69,'            ',138.0,1,1,1,1,1.0,0.0,1.1,0.9,1.1,0.9
70,'            ',138.0,1,1,1,1,1.0,0.0,1.1,0.9,1.1,0.9
71,'            ',13.8,2,1,1,1,1.0,0.0,1.1,0.9,1.1,0.9
72,'            ',13.8,2,1,1,1,1.0,0.0,1.1,0.9,1.1,0.9
73,'            ',13.8,2,1,1,1,1.0,0.0,1.1,0.9,1.1,0.9
74,'            ',138.0,1,1,1,1,1.0,0.0,1.1,0.9,1.1,0.9
75,'            ',138.0,1,1,1,1,1.0,0.0,1.1,0.9,1.1,0.9
76,'            ',138.0,1,1,1,1,1.0,0.0,1.1,0.9,1.1,0.9
77,'            ',138.0,1,1,1,1,1.0,0.0,1.1,0.9,1.1,0.9
78,'            ',138.0,1,1,1,1,1.0,0.0,1.1,0.9,1.1,0.9
79,'            ',138.0,1,1,1,1,1.0,0.0,1.1,0.9,1.1,0.9
80,'            ',345.0,1,1,1,1,1.0,0.0,1.1,0.9,1.1,0.9
81,'            ',138.0,1,1,1,1,1.0,0.0,1.1,0.9,1.1,0.9
82,'            ',13.8,2,1,1,1,1.0,0.0,1.1,0.9,1.1,0.9
83,'            ',138.0,1,1,1,1,1.0,0.0,1.1,0.9,1.1,0.9
84,'            ',138.0,1,1,1,1,1.0,0.0,1.1,0.9,1.1,0.9
85,'            ',138.0,1,1,1,1,1.0,0.0,1.1,0.9,1.1,0.9
86,'            ',138.0,1,1,1,1,1.0,0.0,1.1,0.9,1.1,0.9
87,'            ',138.0,1,1,1,1,1.0,0.0,1.1,0.9,1.1,0.9
88,'            ',138.0,1,1,1,1,1.0,0.0,1.1,0.9,1.1,0.9
89,'            ',138.0,1,1,1,1,1.0,0.0,1.1,0.9,1.1,0.9
90,'            ',138.0,1,1,1,1,1.0,0.0,1.1,0.9,1.1,0.9
91,'            ',138.0,1,1,1,1,1.0,0.0,1.1,0.9,1.1,0.9
92,'            ',138.0,1,1,1,1,1.0,0.0,1.1,0.9,1.1,0.9
93,'            ',138.0,1,1,1,1,1.0,0.0,1.1,0.9,1.1,0.9
94,'            ',138.0,1,1,1,1,1.0,0.0,1.1,0.9,1.1,0.9
95,'            ',138.0,1,1,1,1,1.0,0.0,1.1,0.9,1.1,0.9
96,'            ',138.0,1,1,1,1,1.0,0.0,1.1,0.9,1.1,0.9
97,'            ',138.0,1,1,1,1,1.0,0.0,1.1,0.9,1.1,0.9
98,'            ',138.0,1,1,1,1,1.0,0.0,1.1,0.9,1.1,0.9
99,'            ',138.0,1,1,1,1,1.0,0.0,1.1,0.9,1.1,0.9
100,'            ',138.0,1,1,1,1,1.0,0.0,1.1,0.9,1.1,0.9
101,'            ',138.0,1,1,1,1,1.0,0.0,1.1,0.9,1.1,0.9
102,'            ',138.0,1,1,1,1,1.0,0.0,1.1,0.9,1.1,0.9
103,'            ',138.0,1,1,1,1,1.0,0.0,1.1,0.9,1.1,0.9
104,'            ',138.0,1,1,1,1,1.0,0.0,1.1,0.9,1.1,0.9
105,'            ',138.0,1,1,1,1,1.0,0.0,1.1,0.9,1.1,0.9
106,'            ',138.0,1,1,1,1,1.0,0.0,1.1,0.9,1.1,0.9
107,'            ',138.0,1,1,1,1,1.0,0.0,1.1,0.9,1.1,0.9
108,'            ',138.0,1,1,1,1,1.0,0.0,1.1,0.9,1.1,0.9
109,'            ',138.0,1,1,1,1,1.0,0.0,1.1,0.9,1.1,0.9
110,'            ',138.0,1,1,1,1,1.0,0.0,1.1,0.9,1.1,0.9
111,'            ',138.0,1,1,1,1,1.0,0.0,1.1,0.9,1.1,0.9
112,'            ',138.0,1,1,1,1,1.0,0.0,1.1,0.9,1.1,0.9
113,'            ',138.0,1,1,1,1,1.0,0.0,1.1,0.9,1.1,0.9
114,'            ',138.0,1,1,1,1,1.0,0.0,1.1,0.9,1.1,0.9
115,'            ',138.0,1,1,1,1,1.0,0.0,1.1,0.9,1.1,0.9
116,'            ',138.0,1,1,1,1,1.0,0.0,1.1,0.9,1.1,0.9
117,'            ',138.0,1,1,1,1,1.0,0.0,1.1,0.9,1.1,0.9
118,'            ',138.0,1,1,1,1,1.0,0.0,1.1,0.9,1.1,0.9
119,'            ',138.0,1,1,1,1,1.0,0.0,1.1,0.9,1.1,0.9
120,'            ',138.0,1,1,1,1,1.0,0.0,1.1,0.9,1.1,0.9
121,'            ',138.0,1,1,1,1,1.0,0.0,1.1,0.9,1.1,0.9
122,'            ',138.0,1,1,1,1,1.0,0.0,1.1,0.9,1.1,0.9
123,'            ',345.0,1,1,1,1,1.0,0.0,1.1,0.9,1.1,0.9
124,'            ',138.0,1,1,1,1,1.0,0.0,1.1,0.9,1.1,0.9
125,'            ',13.8,2,1,1,1,1.0,0.0,1.1,0.9,1.1,0.9
126,'            ',13.8,2,1,1,1,1.0,0.0,1.1,0.9,1.1,0.9
127,'            ',13.8,2,1,1,1,1.0,0.0,1.1,0.9,1.1,0.9
128,'            ',13.8,2,1,1,1,1.0,0.0,1.1,0.9,1.1,0.9
129,'            ',138.0,1,1,1,1,1.0,0.0,1.1,0.9,1.1,0.9
130,'            ',138.0,1,1,1,1,1.0,0.0,1.1,0.9,1.1,0.9
131,'            ',138.0,1,1,1,1,1.0,0.0,1.1,0.9,1.1,0.9
132,'            ',138.0,1,1,1,1,1.0,0.0,1.1,0.9,1.1,0.9
133,'            ',138.0,1,1,1,1,1.0,0.0,1.1,0.9,1.1,0.9
134,'            ',138.0,1,1,1,1,1.0,0.0,1.1,0.9,1.1,0.9
135,'            ',138.0,1,1,1,1,1.0,0.0,1.1,0.9,1.1,0.9
136,'            ',138.0,1,1,1,1,1.0,0.0,1.1,0.9,1.1,0.9
137,'            ',138.0,1,1,1,1,1.0,0.0,1.1,0.9,1.1,0.9
138,'            ',138.0,1,1,1,1,1.0,0.0,1.1,0.9,1.1,0.9
139,'            ',138.0,1,1,1,1,1.0,0.0,1.1,0.9,1.1,0.9
140,'            ',138.0,1,1,1,1,1.0,0.0,1.1,0.9,1.1,0.9
141,'            ',138.0,1,1,1,1,1.0,0.0,1.1,0.9,1.1,0.9
142,'            ',138.0,1,1,1,1,1.0,0.0,1.1,0.9,1.1,0.9
143,'            ',138.0,1,1,1,1,1.0,0.0,1.1,0.9,1.1,0.9
144,'            ',13.8,2,1,1,1,1.0,0.0,1.1,0.9,1.1,0.9
145,'            ',13.8,2,1,1,1,1.0,0.0,1.1,0.9,1.1,0.9
146,'            ',345.0,1,1,1,1,1.0,0.0,1.1,0.9,1.1,0.9
147,'            ',138.0,1,1,1,1,1.0,0.0,1.1,0.9,1.1,0.9
148,'            ',138.0,1,1,1,1,1.0,0.0,1.1,0.9,1.1,0.9
149,'            ',138.0,1,1,1,1,1.0,0.0,1.1,0.9,1.1,0.9
150,'            ',138.0,1,1,1,1,1.0,0.0,1.1,0.9,1.1,0.9
151,'            ',345.0,1,1,1,1,1.0,0.0,1.1,0.9,1.1,0.9
152,'            ',138.0,1,1,1,1,1.0,0.0,1.1,0.9,1.1,0.9
153,'            ',138.0,1,1,1,1,1.0,0.0,1.1,0.9,1.1,0.9
154,'            ',138.0,1,1,1,1,1.0,0.0,1.1,0.9,1.1,0.9
155,'            ',138.0,1,1,1,1,1.0,0.0,1.1,0.9,1.1,0.9
156,'            ',138.0,1,1,1,1,1.0,0.0,1.1,0.9,1.1,0.9
157,'            ',138.0,1,1,1,1,1.0,0.0,1.1,0.9,1.1,0.9
158,'            ',138.0,1,1,1,1,1.0,0.0,1.1,0.9,1.1,0.9
159,'            ',138.0,1,1,1,1,1.0,0.0,1.1,0.9,1.1,0.9
160,'            ',138.0,1,1,1,1,1.0,0.0,1.1,0.9,1.1,0.9
161,'            ',138.0,1,1,1,1,1.0,0.0,1.1,0.9,1.1,0.9
162,'            ',345.0,1,1,1,1,1.0,0.0,1.1,0.9,1.1,0.9
163,'            ',138.0,1,1,1,1,1.0,0.0,1.1,0.9,1.1,0.9
164,'            ',138.0,1,1,1,1,1.0,0.0,1.1,0.9,1.1,0.9
165,'            ',345.0,1,1,1,1,1.0,0.0,1.1,0.9,1.1,0.9
166,'            ',138.0,1,1,1,1,1.0,0.0,1.1,0.9,1.1,0.9
167,'            ',13.8,2,1,1,1,1.0,0.0,1.1,0.9,1.1,0.9
168,'            ',13.8,2,1,1,1,1.0,0.0,1.1,0.9,1.1,0.9
169,'            ',13.8,2,1,1,1,1.0,0.0,1.1,0.9,1.1,0.9
170,'            ',138.0,1,1,1,1,1.0,0.0,1.1,0.9,1.1,0.9
171,'            ',138.0,1,1,1,1,1.0,0.0,1.1,0.9,1.1,0.9
172,'            ',138.0,1,1,1,1,1.0,0.0,1.1,0.9,1.1,0.9
173,'            ',138.0,1,1,1,1,1.0,0.0,1.1,0.9,1.1,0.9
174,'            ',138.0,1,1,1,1,1.0,0.0,1.1,0.9,1.1,0.9
175,'            ',345.0,1,1,1,1,1.0,0.0,1.1,0.9,1.1,0.9
176,'            ',138.0,1,1,1,1,1.0,0.0,1.1,0.9,1.1,0.9
177,'            ',138.0,1,1,1,1,1.0,0.0,1.1,0.9,1.1,0.9
178,'            ',138.0,1,1,1,1,1.0,0.0,1.1,0.9,1.1,0.9
179,'            ',138.0,1,1,1,1,1.0,0.0,1.1,0.9,1.1,0.9
180,'            ',138.0,1,1,1,1,1.0,0.0,1.1,0.9,1.1,0.9
181,'            ',138.0,1,1,1,1,1.0,0.0,1.1,0.9,1.1,0.9
182,'            ',138.0,1,1,1,1,1.0,0.0,1.1,0.9,1.1,0.9
183,'            ',138.0,1,1,1,1,1.0,0.0,1.1,0.9,1.1,0.9
184,'            ',138.0,1,1,1,1,1.0,0.0,1.1,0.9,1.1,0.9
185,'            ',138.0,1,1,1,1,1.0,0.0,1.1,0.9,1.1,0.9
186,'            ',138.0,1,1,1,1,1.0,0.0,1.1,0.9,1.1,0.9
187,'            ',138.0,1,1,1,1,1.0,0.0,1.1,0.9,1.1,0.9
188,'            ',138.0,1,1,1,1,1.0,0.0,1.1,0.9,1.1,0.9
189,'            ',138.0,1,1,1,1,1.0,0.0,1.1,0.9,1.1,0.9
190,'            ',138.0,1,1,1,1,1.0,0.0,1.1,0.9,1.1,0.9
191,'            ',138.0,1,1,1,1,1.0,0.0,1.1,0.9,1.1,0.9
192,'            ',138.0,1,1,1,1,1.0,0.0,1.1,0.9,1.1,0.9
193,'            ',138.0,1,1,1,1,1.0,0.0,1.1,0.9,1.1,0.9
194,'            ',138.0,1,1,1,1,1.0,0.0,1.1,0.9,1.1,0.9
195,'            ',345.0,1,1,1,1,1.0,0.0,1.1,0.9,1.1,0.9
196,'            ',138.0,1,1,1,1,1.0,0.0,1.1,0.9,1.1,0.9
197,'            ',13.8,2,1,1,1,1.0,0.0,1.1,0.9,1.1,0.9
198,'            ',13.8,2,1,1,1,1.0,0.0,1.1,0.9,1.1,0.9
199,'            ',138.0,1,1,1,1,1.0,0.0,1.1,0.9,1.1,0.9
200,'            ',138.0,1,1,1,1,1.0,0.0,1.1,0.9,1.1,0.9
...
0 / end bus section
427,'1',1,1,1,7.845,2.092,0.0,0.0,0.0,0.0,1,1,0
290,'1',1,1,1,2.232,0.595,0.0,0.0,0.0,0.0,1,1,0
377,'1',1,1,1,52.388,13.97,0.0,0.0,0.0,0.0,1,1,0
368,'1',1,1,1,6.927,1.847,0.0,0.0,0.0,0.0,1,1,0
206,'1',1,1,1,1.636,0.436,0.0,0.0,0.0,0.0,1,1,0
138,'1',1,1,1,42.78,11.408,0.0,0.0,0.0,0.0,1,1,0
86,'1',1,1,1,9.562,2.55,0.0,0.0,0.0,0.0,1,1,0
420,'1',1,1,1,2.841,0.757,0.0,0.0,0.0,0.0,1,1,0
155,'1',1,1,1,38.742,10.331,0.0,0.0,0.0,0.0,1,1,0
96,'1',1,1,1,20.562,5.483,0.0,0.0,0.0,0.0,1,1,0
103,'1',1,1,1,21.09,5.624,0.0,0.0,0.0,0.0,1,1,0
446,'1',1,1,1,53.739,14.33,0.0,0.0,0.0,0.0,1,1,0
259,'1',1,1,1,4.945,1.319,0.0,0.0,0.0,0.0,1,1,0
113,'1',1,1,1,24.997,6.666,0.0,0.0,0.0,0.0,1,1,0
317,'1',1,1,1,2.215,0.591,0.0,0.0,0.0,0.0,1,1,0
148,'1',1,1,1,42.186,11.25,0.0,0.0,0.0,0.0,1,1,0
217,'1',1,1,1,33.389,8.904,0.0,0.0,0.0,0.0,1,1,0
343,'1',1,1,1,1.365,0.364,0.0,0.0,0.0,0.0,1,1,0
243,'1',1,1,1,54.709,14.589,0.0,0.0,0.0,0.0,1,1,0
234,'1',1,1,1,44.055,11.748,0.0,0.0,0.0,0.0,1,1,0
182,'1',1,1,1,49.964,13.324,0.0,0.0,0.0,0.0,1,1,0
173,'1',1,1,1,1.704,0.454,0.0,0.0,0.0,0.0,1,1,0
4,'1',1,1,1,97.483,25.995,0.0,0.0,0.0,0.0,1,1,0
448,'1',1,1,1,33.36,8.896,0.0,0.0,0.0,0.0,1,1,0
199,'1',1,1,1,63.472,16.926,0.0,0.0,0.0,0.0,1,1,0
286,'1',1,1,1,5.0,1.333,0.0,0.0,0.0,0.0,1,1,0
227,'1',1,1,1,3.28,0.875,0.0,0.0,0.0,0.0,1,1,0
474,'1',1,1,1,101.331,27.021,0.0,0.0,0.0,0.0,1,1,0
465,'1',1,1,1,7.258,1.935,0.0,0.0,0.0,0.0,1,1,0
296,'1',1,1,1,4.514,1.204,0.0,0.0,0.0,0.0,1,1,0
491,'1',1,1,1,87.816,23.418,0.0,0.0,0.0,0.0,1,1,0
467,'1',1,1,1,0.488,0.13,0.0,0.0,0.0,0.0,1,1,0
280,'1',1,1,1,10.267,2.738,0.0,0.0,0.0,0.0,1,1,0
406,'1',1,1,1,3.099,0.826,0.0,0.0,0.0,0.0,1,1,0
397,'1',1,1,1,24.164,6.444,0.0,0.0,0.0,0.0,1,1,0
475,'1',1,1,1,0.119,0.032,0.0,0.0,0.0,0.0,1,1,0
492,'1',1,1,1,35.144,9.372,0.0,0.0,0.0,0.0,1,1,0
323,'1',1,1,1,27.432,7.315,0.0,0.0,0.0,0.0,1,1,0
186,'1',1,1,1,27.426,7.314,0.0,0.0,0.0,0.0,1,1,0
177,'1',1,1,1,5.183,1.382,0.0,0.0,0.0,0.0,1,1,0
381,'1',1,1,1,5.872,1.566,0.0,0.0,0.0,0.0,1,1,0
468,'1',1,1,1,2.275,0.607,0.0,0.0,0.0,0.0,1,1,0
203,'1',1,1,1,2.549,0.68,0.0,0.0,0.0,0.0,1,1,0
194,'1',1,1,1,15.597,4.159,0.0,0.0,0.0,0.0,1,1,0
25,'1',1,1,1,1.323,0.353,0.0,0.0,0.0,0.0,1,1,0
485,'1',1,1,1,20.482,5.462,0.0,0.0,0.0,0.0,1,1,0
307,'1',1,1,1,46.08,12.288,0.0,0.0,0.0,0.0,1,1,0
237,'1',1,1,1,1.474,0.393,0.0,0.0,0.0,0.0,1,1,0
213,'1',1,1,1,52.985,14.129,0.0,0.0,0.0,0.0,1,1,0
204,'1',1,1,1,24.821,6.619,0.0,0.0,0.0,0.0,1,1,0
26,'1',1,1,1,12.556,3.348,0.0,0.0,0.0,0.0,1,1,0
273,'1',1,1,1,5.159,1.376,0.0,0.0,0.0,0.0,1,1,0
495,'1',1,1,1,43.57,11.619,0.0,0.0,0.0,0.0,1,1,0
52,'1',1,1,1,12.712,3.39,0.0,0.0,0.0,0.0,1,1,0
43,'1',1,1,1,2.425,0.647,0.0,0.0,0.0,0.0,1,1,0
418,'1',1,1,1,38.548,10.28,0.0,0.0,0.0,0.0,1,1,0
334,'1',1,1,1,0.29,0.077,0.0,0.0,0.0,0.0,1,1,0
69,'1',1,1,1,9.831,2.622,0.0,0.0,0.0,0.0,1,1,0
266,'1',1,1,1,45.39,12.104,0.0,0.0,0.0,0.0,1,1,0
344,'1',1,1,1,1.321,0.352,0.0,0.0,0.0,0.0,1,1,0
461,'1',1,1,1,55.58,14.821,0.0,0.0,0.0,0.0,1,1,0
36,'1',1,1,1,23.563,6.283,0.0,0.0,0.0,0.0,1,1,0
241,'1',1,1,1,10.729,2.861,0.0,0.0,0.0,0.0,1,1,0
79,'1',1,1,1,0.23,0.061,0.0,0.0,0.0,0.0,1,1,0
2,'1',1,1,1,31.445,8.385,0.0,0.0,0.0,0.0,1,1,0
284,'1',1,1,1,17.746,4.732,0.0,0.0,0.0,0.0,1,1,0
56,'1',1,1,1,1.225,0.327,0.0,0.0,0.0,0.0,1,1,0
132,'1',1,1,1,14.607,3.895,0.0,0.0,0.0,0.0,1,1,0
64,'1',1,1,1,25.549,6.813,0.0,0.0,0.0,0.0,1,1,0
327,'1',1,1,1,88.947,23.719,0.0,0.0,0.0,0.0,1,1,0
277,'1',1,1,1,0.298,0.079,0.0,0.0,0.0,0.0,1,1,0
355,'1',1,1,1,14.668,3.911,0.0,0.0,0.0,0.0,1,1,0
90,'1',1,1,1,4.335,1.156,0.0,0.0,0.0,0.0,1,1,0
424,'1',1,1,1,92.726,24.727,0.0,0.0,0.0,0.0,1,1,0
303,'1',1,1,1,51.209,13.656,0.0,0.0,0.0,0.0,1,1,0
294,'1',1,1,1,13.917,3.711,0.0,0.0,0.0,0.0,1,1,0
107,'1',1,1,1,8.699,2.32,0.0,0.0,0.0,0.0,1,1,0
311,'1',1,1,1,26.508,7.069,0.0,0.0,0.0,0.0,1,1,0
142,'1',1,1,1,95.234,25.396,0.0,0.0,0.0,0.0,1,1,0
252,'1',1,1,1,71.917,19.178,0.0,0.0,0.0,0.0,1,1,0
321,'1',1,1,1,110.513,29.47,0.0,0.0,0.0,0.0,1,1,0
159,'1',1,1,1,16.788,4.477,0.0,0.0,0.0,0.0,1,1,0
22,'1',1,1,1,109.246,29.132,0.0,0.0,0.0,0.0,1,1,0
13,'1',1,1,1,22.518,6.005,0.0,0.0,0.0,0.0,1,1,0
100,'1',1,1,1,7.837,2.09,0.0,0.0,0.0,0.0,1,1,0
288,'1',1,1,1,42.69,11.384,0.0,0.0,0.0,0.0,1,1,0
451,'1',1,1,1,1.281,0.342,0.0,0.0,0.0,0.0,1,1,0
136,'1',1,1,1,19.658,5.242,0.0,0.0,0.0,0.0,1,1,0
84,'1',1,1,1,33.377,8.901,0.0,0.0,0.0,0.0,1,1,0
331,'1',1,1,1,33.138,8.837,0.0,0.0,0.0,0.0,1,1,0
153,'1',1,1,1,53.991,14.398,0.0,0.0,0.0,0.0,1,1,0
101,'1',1,1,1,0.516,0.138,0.0,0.0,0.0,0.0,1,1,0
348,'1',1,1,1,52.354,13.961,0.0,0.0,0.0,0.0,1,1,0
118,'1',1,1,1,4.801,1.28,0.0,0.0,0.0,0.0,1,1,0
452,'1',1,1,1,6.589,1.757,0.0,0.0,0.0,0.0,1,1,0
315,'1',1,1,1,0.247,0.066,0.0,0.0,0.0,0.0,1,1,0
478,'1',1,1,1,5.404,1.442,0.0,0.0,0.0,0.0,1,1,0
341,'1',1,1,1,14.678,3.914,0.0,0.0,0.0,0.0,1,1,0
111,'1',1,1,1,36.102,9.627,0.0,0.0,0.0,0.0,1,1,0
180,'1',1,1,1,10.385,2.769,0.0,0.0,0.0,0.0,1,1,0
171,'1',1,1,1,7.484,1.996,0.0,0.0,0.0,0.0,1,1,0
34,'1',1,1,1,13.588,3.623,0.0,0.0,0.0,0.0,1,1,0
375,'1',1,1,1,18.194,4.852,0.0,0.0,0.0,0.0,1,1,0
385,'1',1,1,1,22.191,5.918,0.0,0.0,0.0,0.0,1,1,0
472,'1',1,1,1,28.813,7.684,0.0,0.0,0.0,0.0,1,1,0
77,'1',1,1,1,4.103,1.094,0.0,0.0,0.0,0.0,1,1,0
164,'1',1,1,1,72.11,19.229,0.0,0.0,0.0,0.0,1,1,0
402,'1',1,1,1,52.147,13.906,0.0,0.0,0.0,0.0,1,1,0
489,'1',1,1,1,2.001,0.533,0.0,0.0,0.0,0.0,1,1,0
359,'1',1,1,1,7.928,2.114,0.0,0.0,0.0,0.0,1,1,0
190,'1',1,1,1,7.648,2.039,0.0,0.0,0.0,0.0,1,1,0
122,'1',1,1,1,39.205,10.455,0.0,0.0,0.0,0.0,1,1,0
207,'1',1,1,1,12.269,3.272,0.0,0.0,0.0,0.0,1,1,0
61,'1',1,1,1,0.118,0.032,0.0,0.0,0.0,0.0,1,1,0
404,'1',1,1,1,10.746,2.866,0.0,0.0,0.0,0.0,1,1,0
130,'1',1,1,1,62.561,16.683,0.0,0.0,0.0,0.0,1,1,0
473,'1',1,1,1,0.604,0.161,0.0,0.0,0.0,0.0,1,1,0
174,'1',1,1,1,3.971,1.059,0.0,0.0,0.0,0.0,1,1,0
499,'1',1,1,1,89.87,23.965,0.0,0.0,0.0,0.0,1,1,0
490,'1',1,1,1,18.029,4.808,0.0,0.0,0.0,0.0,1,1,0
184,'1',1,1,1,17.812,4.75,0.0,0.0,0.0,0.0,1,1,0
379,'1',1,1,1,7.68,2.048,0.0,0.0,0.0,0.0,1,1,0
370,'1',1,1,1,21.533,5.742,0.0,0.0,0.0,0.0,1,1,0
201,'1',1,1,1,6.531,1.741,0.0,0.0,0.0,0.0,1,1,0
192,'1',1,1,1,8.936,2.383,0.0,0.0,0.0,0.0,1,1,0
30,'1',1,1,1,73.448,19.586,0.0,0.0,0.0,0.0,1,1,0
140,'1',1,1,1,0.148,0.039,0.0,0.0,0.0,0.0,1,1,0
209,'1',1,1,1,49.601,13.227,0.0,0.0,0.0,0.0,1,1,0
422,'1',1,1,1,36.131,9.635,0.0,0.0,0.0,0.0,1,1,0
157,'1',1,1,1,63.901,17.04,0.0,0.0,0.0,0.0,1,1,0
500,'1',1,1,1,12.735,3.396,0.0,0.0,0.0,0.0,1,1,0
98,'1',1,1,1,22.433,5.982,0.0,0.0,0.0,0.0,1,1,0
270,'1',1,1,1,3.697,0.986,0.0,0.0,0.0,0.0,1,1,0
261,'1',1,1,1,11.3,3.013,0.0,0.0,0.0,0.0,1,1,0
211,'1',1,1,1,19.867,5.298,0.0,0.0,0.0,0.0,1,1,0
150,'1',1,1,1,0.817,0.218,0.0,0.0,0.0,0.0,1,1,0
219,'1',1,1,1,0.181,0.048,0.0,0.0,0.0,0.0,1,1,0
466,'1',1,1,1,25.118,6.698,0.0,0.0,0.0,0.0,1,1,0
41,'1',1,1,1,33.611,8.963,0.0,0.0,0.0,0.0,1,1,0
416,'1',1,1,1,4.454,1.188,0.0,0.0,0.0,0.0,1,1,0
245,'1',1,1,1,6.433,1.715,0.0,0.0,0.0,0.0,1,1,0
67,'1',1,1,1,2.483,0.662,0.0,0.0,0.0,0.0,1,1,0
6,'1',1,1,1,1.896,0.506,0.0,0.0,0.0,0.0,1,1,0
459,'1',1,1,1,43.956,11.722,0.0,0.0,0.0,0.0,1,1,0
450,'1',1,1,1,0.65,0.173,0.0,0.0,0.0,0.0,1,1,0
229,'1',1,1,1,32.713,8.723,0.0,0.0,0.0,0.0,1,1,0
476,'1',1,1,1,43.975,11.727,0.0,0.0,0.0,0.0,1,1,0
51,'1',1,1,1,0.192,0.051,0.0,0.0,0.0,0.0,1,1,0
161,'1',1,1,1,14.107,3.762,0.0,0.0,0.0,0.0,1,1,0
493,'1',1,1,1,2.389,0.637,0.0,0.0,0.0,0.0,1,1,0
178,'1',1,1,1,4.021,1.072,0.0,0.0,0.0,0.0,1,1,0
94,'1',1,1,1,3.831,1.022,0.0,0.0,0.0,0.0,1,1,0
469,'1',1,1,1,77.886,20.77,0.0,0.0,0.0,0.0,1,1,0
460,'1',1,1,1,15.268,4.072,0.0,0.0,0.0,0.0,1,1,0
282,'1',1,1,1,70.943,18.918,0.0,0.0,0.0,0.0,1,1,0
239,'1',1,1,1,22.681,6.048,0.0,0.0,0.0,0.0,1,1,0
486,'1',1,1,1,50.352,13.427,0.0,0.0,0.0,0.0,1,1,0
477,'1',1,1,1,18.158,4.843,0.0,0.0,0.0,0.0,1,1,0
299,'1',1,1,1,7.918,2.112,0.0,0.0,0.0,0.0,1,1,0
325,'1',1,1,1,62.694,16.718,0.0,0.0,0.0,0.0,1,1,0
188,'1',1,1,1,8.118,2.165,0.0,0.0,0.0,0.0,1,1,0
88,'1',1,1,1,3.101,0.827,0.0,0.0,0.0,0.0,1,1,0
470,'1',1,1,1,25.739,6.864,0.0,0.0,0.0,0.0,1,1,0
292,'1',1,1,1,5.596,1.492,0.0,0.0,0.0,0.0,1,1,0
105,'1',1,1,1,43.665,11.644,0.0,0.0,0.0,0.0,1,1,0
487,'1',1,1,1,7.056,1.882,0.0,0.0,0.0,0.0,1,1,0
309,'1',1,1,1,4.908,1.309,0.0,0.0,0.0,0.0,1,1,0
335,'1',1,1,1,0.483,0.129,0.0,0.0,0.0,0.0,1,1,0
20,'1',1,1,1,2.469,0.658,0.0,0.0,0.0,0.0,1,1,0
11,'1',1,1,1,1.344,0.358,0.0,0.0,0.0,0.0,1,1,0
215,'1',1,1,1,45.917,12.244,0.0,0.0,0.0,0.0,1,1,0
28,'1',1,1,1,36.475,9.727,0.0,0.0,0.0,0.0,1,1,0
115,'1',1,1,1,2.751,0.734,0.0,0.0,0.0,0.0,1,1,0
54,'1',1,1,1,25.574,6.82,0.0,0.0,0.0,0.0,1,1,0
45,'1',1,1,1,1.492,0.398,0.0,0.0,0.0,0.0,1,1,0
329,'1',1,1,1,15.736,4.196,0.0,0.0,0.0,0.0,1,1,0
268,'1',1,1,1,63.674,16.98,0.0,0.0,0.0,0.0,1,1,0
346,'1',1,1,1,34.958,9.322,0.0,0.0,0.0,0.0,1,1,0
337,'1',1,1,1,3.349,0.893,0.0,0.0,0.0,0.0,1,1,0
47,'1',1,1,1,25.16,6.709,0.0,0.0,0.0,0.0,1,1,0
38,'1',1,1,1,0.076,0.02,0.0,0.0,0.0,0.0,1,1,0
116,'1',1,1,1,1.684,0.449,0.0,0.0,0.0,0.0,1,1,0
313,'1',1,1,1,6.761,1.803,0.0,0.0,0.0,0.0,1,1,0
398,'1',1,1,1,10.14,2.704,0.0,0.0,0.0,0.0,1,1,0
339,'1',1,1,1,44.331,11.822,0.0,0.0,0.0,0.0,1,1,0
278,'1',1,1,1,4.238,1.13,0.0,0.0,0.0,0.0,1,1,0
32,'1',1,1,1,5.308,1.415,0.0,0.0,0.0,0.0,1,1,0
373,'1',1,1,1,21.185,5.649,0.0,0.0,0.0,0.0,1,1,0
364,'1',1,1,1,17.642,4.704,0.0,0.0,0.0,0.0,1,1,0
134,'1',1,1,1,25.791,6.878,0.0,0.0,0.0,0.0,1,1,0
75,'1',1,1,1,3.895,1.039,0.0,0.0,0.0,0.0,1,1,0
400,'1',1,1,1,12.515,3.337,0.0,0.0,0.0,0.0,1,1,0
366,'1',1,1,1,41.502,11.067,0.0,0.0,0.0,0.0,1,1,0
357,'1',1,1,1,33.773,9.006,0.0,0.0,0.0,0.0,1,1,0
92,'1',1,1,1,39.328,10.487,0.0,0.0,0.0,0.0,1,1,0
120,'1',1,1,1,19.179,5.114,0.0,0.0,0.0,0.0,1,1,0
383,'1',1,1,1,17.357,4.628,0.0,0.0,0.0,0.0,1,1,0
109,'1',1,1,1,27.579,7.354,0.0,0.0,0.0,0.0,1,1,0
59,'1',1,1,1,85.402,22.774,0.0,0.0,0.0,0.0,1,1,0
488,'1',1,1,1,59.322,15.819,0.0,0.0,0.0,0.0,1,1,0
0 / end load section
0 / end fixed shunt section
223,'1',0.0,0.0,6.91,-0.88,1.04,0,0.0,0.0,1.0,0.0,0.0,1.0,1,1.0,6.993,0.0,1,1.0,0,1.0,0,1.0,0,1.0,0,1.0
437,'1',0.0,0.0,75.65,-9.65,1.04,0,0.0,0.0,1.0,0.0,0.0,1.0,1,1.0,76.538,0.0,1,1.0,0,1.0,0,1.0,0,1.0,0,1.0
463,'1',0.0,0.0,3.36,-0.88,1.0324455,0,0.0,0.0,1.0,0.0,0.0,1.0,1,1.0,7.2,2.16,1,1.0,0,1.0,0,1.0,0,1.0,0,1.0
430,'1',0.0,0.0,0.38,-0.05,1.0386056,0,0.0,0.0,1.0,0.0,0.0,1.0,1,1.0,0.389,0.0,1,1.0,0,1.0,0,1.0,0,1.0,0,1.0
396,'1',0.0,0.0,59.25,-12.92,1.0342005,0,0.0,0.0,1.0,0.0,0.0,1.0,0,1.0,116.4,34.92,1,1.0,0,1.0,0,1.0,0,1.0,0,1.0
413,'1',0.0,0.0,69.71,-15.2,1.0323986,0,0.0,0.0,1.0,0.0,0.0,1.0,0,1.0,136.95,41.08,1,1.0,0,1.0,0,1.0,0,1.0,0,1.0
458,'1',0.0,0.0,0.0,0.0,1.0230343,0,0.0,0.0,1.0,0.0,0.0,1.0,0,1.0,109.6,32.88,1,1.0,0,1.0,0,1.0,0,1.0,0,1.0
484,'1',0.0,0.0,10.75,-1.37,1.04,0,0.0,0.0,1.0,0.0,0.0,1.0,1,1.0,10.878,0.0,1,1.0,0,1.0,0,1.0,0,1.0,0,1.0
254,'1',0.0,0.0,1.91,-0.5,1.0114758,0,0.0,0.0,1.0,0.0,0.0,1.0,1,1.0,4.1,1.23,1,1.0,0,1.0,0,1.0,0,1.0,0,1.0
16,'1',0.0,0.0,163.56,-36.44,1.04,0,0.0,0.0,1.0,0.0,0.0,1.0,1,1.0,444.45,133.33,1,1.0,0,1.0,0,1.0,0,1.0,0,1.0
494,'1',0.0,0.0,2.7,-0.71,1.0251843,0,0.0,0.0,1.0,0.0,0.0,1.0,1,1.0,5.8,1.74,1,1.0,0,1.0,0,1.0,0,1.0,0,1.0
248,'1',0.0,0.0,67.8,-14.79,1.0391578,0,0.0,0.0,1.0,0.0,0.0,1.0,0,1.0,133.2,39.96,1,1.0,0,1.0,0,1.0,0,1.0,0,1.0
434,'1',0.0,0.0,1.65,-0.21,1.0387331,0,0.0,0.0,1.0,0.0,0.0,1.0,1,1.0,1.671,0.0,1,1.0,0,1.0,0,1.0,0,1.0,0,1.0
9,'1',0.0,0.0,359.66,-94.16,1.04,0,0.0,0.0,1.0,0.0,0.0,1.0,1,1.0,771.8,231.54,1,1.0,0,1.0,0,1.0,0,1.0,0,1.0
256,'1',0.0,0.0,1.35,-0.35,1.0114723,0,0.0,0.0,1.0,0.0,0.0,1.0,1,1.0,2.9,0.87,1,1.0,0,1.0,0,1.0,0,1.0,0,1.0
350,'1',0.0,0.0,5.76,-0.74,1.0321018,0,0.0,0.0,1.0,0.0,0.0,1.0,1,1.0,5.828,0.0,1,1.0,0,1.0,0,1.0,0,1.0,0,1.0
444,'1',0.0,0.0,1.68,-0.37,1.0262438,0,0.0,0.0,1.0,0.0,0.0,1.0,1,1.0,3.3,0.99,1,1.0,0,1.0,0,1.0,0,1.0,0,1.0
257,'1',0.0,0.0,2.52,-0.66,1.0109243,0,0.0,0.0,1.0,0.0,0.0,1.0,1,1.0,5.4,1.62,1,1.0,0,1.0,0,1.0,0,1.0,0,1.0
351,'1',0.0,0.0,2.38,-0.3,1.0298818,0,0.0,0.0,1.0,0.0,0.0,1.0,1,1.0,2.409,0.0,1,1.0,0,1.0,0,1.0,0,1.0,0,1.0
361,'1',0.0,0.0,0.81,-0.18,1.025503,0,0.0,0.0,1.0,0.0,0.0,1.0,1,1.0,1.6,0.48,1,1.0,0,1.0,0,1.0,0,1.0,0,1.0
224,'1',0.0,0.0,196.3,-25.05,1.04,0,0.0,0.0,1.0,0.0,0.0,1.0,1,1.0,198.609,0.0,1,1.0,0,1.0,0,1.0,0,1.0,0,1.0
231,'1',0.0,0.0,1.35,-0.35,1.0117172,0,0.0,0.0,1.0,0.0,0.0,1.0,1,1.0,2.9,0.87,1,1.0,0,1.0,0,1.0,0,1.0,0,1.0
362,'1',0.0,0.0,5.6,-1.22,1.0293571,0,0.0,0.0,1.0,0.0,0.0,1.0,1,1.0,11.0,3.3,1,1.0,0,1.0,0,1.0,0,1.0,0,1.0
225,'1',0.0,0.0,197.68,-25.23,1.04,0,0.0,0.0,1.0,0.0,0.0,1.0,1,1.0,200.008,0.0,1,1.0,0,1.0,0,1.0,0,1.0,0,1.0
63,'1',0.0,0.0,1.63,-0.36,1.0174598,0,0.0,0.0,1.0,0.0,0.0,1.0,1,1.0,3.2,0.96,1,1.0,0,1.0,0,1.0,0,1.0,0,1.0
301,'1',0.0,0.0,1.35,-0.35,1.0056607,0,0.0,0.0,1.0,0.0,0.0,1.0,1,1.0,2.9,0.87,1,1.0,0,1.0,0,1.0,0,1.0,0,1.0
73,'1',0.0,0.0,0.54,-0.07,1.0121909,0,0.0,0.0,1.0,0.0,0.0,1.0,1,1.0,0.544,0.0,1,1.0,0,1.0,0,1.0,0,1.0,0,1.0
414,'1',0.0,0.0,56.55,-12.33,1.04,0,0.0,0.0,1.0,0.0,0.0,1.0,1,1.0,111.1,33.33,1,1.0,0,1.0,0,1.0,0,1.0,0,1.0
482,'1',0.0,0.0,17.28,-2.21,1.04,0,0.0,0.0,1.0,0.0,0.0,1.0,1,1.0,17.483,0.0,1,1.0,0,1.0,0,1.0,0,1.0,0,1.0
305,'1',0.0,0.0,0.38,-0.05,1.0058168,0,0.0,0.0,1.0,0.0,0.0,1.0,1,1.0,0.389,0.0,1,1.0,0,1.0,0,1.0,0,1.0,0,1.0
390,'1',0.0,0.0,88.23,-19.24,1.0342005,0,0.0,0.0,1.0,0.0,0.0,1.0,0,1.0,173.333,52.0,1,1.0,0,1.0,0,1.0,0,1.0,0,1.0
144,'1',0.0,0.0,221.74,-49.41,1.04,0,0.0,0.0,1.0,0.0,0.0,1.0,1,1.0,602.55,180.76,1,1.0,0,1.0,0,1.0,0,1.0,0,1.0
435,'1',0.0,0.0,75.65,-9.65,1.04,0,0.0,0.0,1.0,0.0,0.0,1.0,1,1.0,76.538,0.0,1,1.0,0,1.0,0,1.0,0,1.0,0,1.0
127,'1',0.0,0.0,62.21,-7.94,1.04,0,0.0,0.0,1.0,0.0,0.0,1.0,1,1.0,62.939,0.0,1,1.0,0,1.0,0,1.0,0,1.0,0,1.0
50,'1',0.0,0.0,1.21,-0.32,1.0033849,0,0.0,0.0,1.0,0.0,0.0,1.0,1,1.0,2.6,0.78,1,1.0,0,1.0,0,1.0,0,1.0,0,1.0
391,'1',0.0,0.0,88.23,-19.24,1.0342005,0,0.0,0.0,1.0,0.0,0.0,1.0,0,1.0,173.333,52.0,1,1.0,0,1.0,0,1.0,0,1.0,0,1.0
197,'1',0.0,0.0,136.82,-35.82,1.04,0,0.0,0.0,1.0,0.0,0.0,1.0,1,1.0,293.6,88.08,1,1.0,0,1.0,0,1.0,0,1.0,0,1.0
394,'1',0.0,0.0,59.25,-12.92,1.0342005,0,0.0,0.0,1.0,0.0,0.0,1.0,0,1.0,116.4,34.92,1,1.0,0,1.0,0,1.0,0,1.0,0,1.0
411,'1',0.0,0.0,69.71,-15.2,1.0323986,0,0.0,0.0,1.0,0.0,0.0,1.0,0,1.0,136.95,41.08,1,1.0,0,1.0,0,1.0,0,1.0,0,1.0
352,'1',0.0,0.0,5.53,-0.71,1.0319833,0,0.0,0.0,1.0,0.0,0.0,1.0,1,1.0,5.595,0.0,1,1.0,0,1.0,0,1.0,0,1.0,0,1.0
456,'1',0.0,0.0,226.84,-49.47,1.0256719,0,0.0,0.0,1.0,0.0,0.0,1.0,0,1.0,445.667,133.7,1,1.0,0,1.0,0,1.0,0,1.0,0,1.0
198,'1',0.0,0.0,96.6,-25.29,1.04,0,0.0,0.0,1.0,0.0,0.0,1.0,1,1.0,207.3,62.19,1,1.0,0,1.0,0,1.0,0,1.0,0,1.0
395,'1',0.0,0.0,59.25,-12.92,1.0342005,0,0.0,0.0,1.0,0.0,0.0,1.0,0,1.0,116.4,34.92,1,1.0,0,1.0,0,1.0,0,1.0,0,1.0
412,'1',0.0,0.0,69.71,-15.2,1.0323986,0,0.0,0.0,1.0,0.0,0.0,1.0,0,1.0,136.95,41.08,1,1.0,0,1.0,0,1.0,0,1.0,0,1.0
353,'1',0.0,0.0,28.42,-3.63,1.04,0,0.0,0.0,1.0,0.0,0.0,1.0,1,1.0,28.75,0.0,1,1.0,0,1.0,0,1.0,0,1.0,0,1.0
438,'1',0.0,0.0,75.65,-9.65,1.04,0,0.0,0.0,1.0,0.0,0.0,1.0,1,1.0,76.538,0.0,1,1.0,0,1.0,0,1.0,0,1.0,0,1.0
455,'1',0.0,0.0,113.42,-24.73,1.0256719,0,0.0,0.0,1.0,0.0,0.0,1.0,0,1.0,222.833,66.85,1,1.0,0,1.0,0,1.0,0,1.0,0,1.0
483,'1',0.0,0.0,9.22,-1.18,1.04,0,0.0,0.0,1.0,0.0,0.0,1.0,1,1.0,9.324,0.0,1,1.0,0,1.0,0,1.0,0,1.0,0,1.0
431,'1',0.0,0.0,1.27,-0.16,1.0388189,0,0.0,0.0,1.0,0.0,0.0,1.0,1,1.0,1.282,0.0,1,1.0,0,1.0,0,1.0,0,1.0,0,1.0
432,'1',0.0,0.0,0.46,-0.06,1.0385103,0,0.0,0.0,1.0,0.0,0.0,1.0,1,1.0,0.466,0.0,1,1.0,0,1.0,0,1.0,0,1.0,0,1.0
439,'1',0.0,0.0,75.65,-9.65,1.04,0,0.0,0.0,1.0,0.0,0.0,1.0,1,1.0,76.538,0.0,1,1.0,0,1.0,0,1.0,0,1.0,0,1.0
167,'1',0.0,0.0,74.3,-9.48,1.04,0,0.0,0.0,1.0,0.0,0.0,1.0,1,1.0,75.178,0.0,1,1.0,0,1.0,0,1.0,0,1.0,0,1.0
442,'1',0.0,0.0,54.97,-11.99,1.04,0,0.0,0.0,1.0,0.0,0.0,1.0,1,1.0,108.0,32.4,1,1.0,0,1.0,0,1.0,0,1.0,0,1.0
433,'1',0.0,0.0,2.57,-0.33,1.04,0,0.0,0.0,1.0,0.0,0.0,1.0,1,1.0,2.603,0.0,1,1.0,0,1.0,0,1.0,0,1.0,0,1.0
264,'1',0.0,0.0,19.95,-4.35,1.0378481,0,0.0,0.0,1.0,0.0,0.0,1.0,1,1.0,39.2,11.76,1,1.0,0,1.0,0,1.0,0,1.0,0,1.0
125,'1',0.0,0.0,62.21,-7.94,1.04,0,0.0,0.0,1.0,0.0,0.0,1.0,1,1.0,62.939,0.0,1,1.0,0,1.0,0,1.0,0,1.0,0,1.0
255,'1',0.0,0.0,1.54,-0.4,1.0104772,0,0.0,0.0,1.0,0.0,0.0,1.0,1,1.0,3.3,0.99,1,1.0,0,1.0,0,1.0,0,1.0,0,1.0
443,'1',0.0,0.0,89.07,-19.43,1.0247474,0,0.0,0.0,1.0,0.0,0.0,1.0,0,1.0,175.0,52.5,1,1.0,0,1.0,0,1.0,0,1.0,0,1.0
265,'1',0.0,0.0,5.4,-1.18,1.0299616,0,0.0,0.0,1.0,0.0,0.0,1.0,1,1.0,10.6,3.18,1,1.0,0,1.0,0,1.0,0,1.0,0,1.0
17,'1',0.0,0.0,327.12,-72.89,1.04,0,0.0,0.0,1.0,0.0,0.0,1.0,1,1.0,888.9,266.67,1,1.0,0,1.0,0,1.0,0,1.0,0,1.0
249,'1',0.0,0.0,67.8,-14.79,1.0391578,0,0.0,0.0,1.0,0.0,0.0,1.0,0,1.0,133.2,39.96,1,1.0,0,1.0,0,1.0,0,1.0,0,1.0
275,'1',0.0,0.0,51.51,-11.23,1.04,0,0.0,0.0,1.0,0.0,0.0,1.0,1,1.0,101.2,30.36,1,1.0,0,1.0,0,1.0,0,1.0,0,1.0
18,'1',0.0,0.0,58.0,-12.92,1.04,0,0.0,0.0,1.0,0.0,0.0,1.0,1,1.0,157.6,47.28,1,1.0,0,1.0,0,1.0,0,1.0,0,1.0
480,'1',0.0,0.0,21.5,-2.74,1.04,0,0.0,0.0,1.0,0.0,0.0,1.0,1,1.0,21.757,0.0,1,1.0,0,1.0,0,1.0,0,1.0,0,1.0
250,'1',0.0,0.0,271.2,-59.14,1.0391578,0,0.0,0.0,1.0,0.0,0.0,1.0,0,1.0,532.8,159.84,1,1.0,0,1.0,0,1.0,0,1.0,0,1.0
497,'1',0.0,0.0,23.04,-2.94,1.04,0,0.0,0.0,1.0,0.0,0.0,1.0,1,1.0,23.311,0.0,1,1.0,0,1.0,0,1.0,0,1.0,0,1.0
72,'1',0.0,0.0,0.77,-0.1,1.0117909,0,0.0,0.0,1.0,0.0,0.0,1.0,1,1.0,0.777,0.0,1,1.0,0,1.0,0,1.0,0,1.0,0,1.0
258,'1',0.0,0.0,0.51,-0.13,1.0101857,0,0.0,0.0,1.0,0.0,0.0,1.0,1,1.0,1.1,0.33,1,1.0,0,1.0,0,1.0,0,1.0,0,1.0
302,'1',0.0,0.0,1.35,-0.35,1.0056321,0,0.0,0.0,1.0,0.0,0.0,1.0,1,1.0,2.9,0.87,1,1.0,0,1.0,0,1.0,0,1.0,0,1.0
481,'1',0.0,0.0,17.28,-2.21,1.04,0,0.0,0.0,1.0,0.0,0.0,1.0,1,1.0,17.483,0.0,1,1.0,0,1.0,0,1.0,0,1.0,0,1.0
319,'1',0.0,0.0,16.24,-2.07,1.0316169,0,0.0,0.0,1.0,0.0,0.0,1.0,1,1.0,16.434,0.0,1,1.0,0,1.0,0,1.0,0,1.0,0,1.0
388,'1',0.0,0.0,5.09,-1.11,1.0362942,0,0.0,0.0,1.0,0.0,0.0,1.0,1,1.0,10.0,3.0,1,1.0,0,1.0,0,1.0,0,1.0,0,1.0
498,'1',0.0,0.0,6.91,-0.88,1.0341603,0,0.0,0.0,1.0,0.0,0.0,1.0,1,1.0,6.993,0.0,1,1.0,0,1.0,0,1.0,0,1.0,0,1.0
71,'1',0.0,0.0,1.54,-0.2,1.0113636,0,0.0,0.0,1.0,0.0,0.0,1.0,1,1.0,1.554,0.0,1,1.0,0,1.0,0,1.0,0,1.0,0,1.0
168,'1',0.0,0.0,74.3,-9.48,1.04,0,0.0,0.0,1.0,0.0,0.0,1.0,1,1.0,75.178,0.0,1,1.0,0,1.0,0,1.0,0,1.0,0,1.0
363,'1',0.0,0.0,1.63,-0.36,1.0245438,0,0.0,0.0,1.0,0.0,0.0,1.0,1,1.0,3.2,0.96,1,1.0,0,1.0,0,1.0,0,1.0,0,1.0
389,'1',0.0,0.0,88.23,-19.24,1.04,0,0.0,0.0,1.0,0.0,0.0,1.0,1,1.0,173.333,52.0,1,1.0,0,1.0,0,1.0,0,1.0,0,1.0
82,'1',0.0,0.0,138.97,-17.73,1.04,0,0.0,0.0,1.0,0.0,0.0,1.0,1,1.0,140.604,0.0,1,1.0,0,1.0,0,1.0,0,1.0,0,1.0
169,'1',0.0,0.0,148.61,-18.96,1.04,0,0.0,0.0,1.0,0.0,0.0,1.0,1,1.0,150.355,0.0,1,1.0,0,1.0,0,1.0,0,1.0,0,1.0
126,'1',0.0,0.0,62.21,-7.94,1.04,0,0.0,0.0,1.0,0.0,0.0,1.0,1,1.0,62.939,0.0,1,1.0,0,1.0,0,1.0,0,1.0,0,1.0
49,'1',0.0,0.0,0.61,-0.16,1.0031026,0,0.0,0.0,1.0,0.0,0.0,1.0,1,1.0,1.3,0.39,1,1.0,0,1.0,0,1.0,0,1.0,0,1.0
392,'1',0.0,0.0,59.25,-12.92,1.0342005,0,0.0,0.0,1.0,0.0,0.0,1.0,0,1.0,116.4,34.92,1,1.0,0,1.0,0,1.0,0,1.0,0,1.0
409,'1',0.0,0.0,50.9,-11.1,1.04,0,0.0,0.0,1.0,0.0,0.0,1.0,1,1.0,100.0,30.0,1,1.0,0,1.0,0,1.0,0,1.0,0,1.0
306,'1',0.0,0.0,0.92,-0.12,1.0060453,0,0.0,0.0,1.0,0.0,0.0,1.0,1,1.0,0.932,0.0,1,1.0,0,1.0,0,1.0,0,1.0,0,1.0
393,'1',0.0,0.0,59.25,-12.92,1.0342005,0,0.0,0.0,1.0,0.0,0.0,1.0,0,1.0,116.4,34.92,1,1.0,0,1.0,0,1.0,0,1.0,0,1.0
128,'1',0.0,0.0,62.21,-7.94,1.04,0,0.0,0.0,1.0,0.0,0.0,1.0,1,1.0,62.939,0.0,1,1.0,0,1.0,0,1.0,0,1.0,0,1.0
222,'1',0.0,0.0,2.0,-0.25,1.038677,0,0.0,0.0,1.0,0.0,0.0,1.0,1,1.0,2.02,0.0,1,1.0,0,1.0,0,1.0,0,1.0,0,1.0
410,'1',0.0,0.0,69.71,-15.2,1.0323986,0,0.0,0.0,1.0,0.0,0.0,1.0,0,1.0,136.95,41.08,1,1.0,0,1.0,0,1.0,0,1.0,0,1.0
145,'1',0.0,0.0,221.74,-49.41,1.04,0,0.0,0.0,1.0,0.0,0.0,1.0,1,1.0,602.55,180.76,1,1.0,0,1.0,0,1.0,0,1.0,0,1.0
436,'1',0.0,0.0,75.65,-9.65,1.04,0,0.0,0.0,1.0,0.0,0.0,1.0,1,1.0,76.538,0.0,1,1.0,0,1.0,0,1.0,0,1.0,0,1.0
0 / end generator section
475,147,'1',0.00318505,0.0305846,0.00987304,220.0,220.0,220.0,0.0,0.0,0.0,0.0,1,1,0.0,1,1.0,0,1.0,0,1.0,0,1.0
56,55,'1',0.000640992,0.00331002,0.0,3.1,3.1,3.1,0.0,0.0,0.0,0.0,1,1,0.0,1,1.0,0,1.0,0,1.0,0,1.0
213,212,'1',0.000627778,0.00368532,0.0,155.0,155.0,155.0,0.0,0.0,0.0,0.0,1,1,0.0,1,1.0,0,1.0,0,1.0,0,1.0
143,452,'1',0.007537,0.07237,0.023362,350.0,350.0,350.0,0.0,0.0,0.0,0.0,1,1,0.0,1,1.0,0,1.0,0,1.0,0,1.0
143,401,'1',0.004057,0.038957,0.012576,480.0,480.0,480.0,0.0,0.0,0.0,0.0,1,1,0.0,1,1.0,0,1.0,0,1.0,0,1.0
420,419,'1',0.000565023,0.00375343,0.0,8.5,8.5,8.5,0.0,0.0,0.0,0.0,1,1,0.0,1,1.0,0,1.0,0,1.0,0,1.0
376,469,'1',0.0049093,0.0450342,0.0159591,250.0,250.0,250.0,0.0,0.0,0.0,0.0,1,1,0.0,1,1.0,0,1.0,0,1.0,0,1.0
96,95,'1',0.00056273,0.00325345,0.0,56.2,56.2,56.2,0.0,0.0,0.0,0.0,1,1,0.0,1,1.0,0,1.0,0,1.0,0,1.0
323,322,'1',0.000658216,0.00310925,0.0,75.5,75.5,75.5,0.0,0.0,0.0,0.0,1,1,0.0,1,1.0,0,1.0,0,1.0,0,1.0
287,415,'1',0.00428135,0.0392739,0.0139177,145.0,145.0,145.0,0.0,0.0,0.0,0.0,1,1,0.0,1,1.0,0,1.0,0,1.0,0,1.0
190,189,'1',0.000689543,0.00301019,0.0,22.9,22.9,22.9,0.0,0.0,0.0,0.0,1,1,0.0,1,1.0,0,1.0,0,1.0,0,1.0
232,453,'1',0.0003244,0.00429228,0.0904545,1000.0,1000.0,1000.0,0.0,0.0,0.0,0.0,1,1,0.0,1,1.0,0,1.0,0,1.0,0,1.0
311,310,'1',0.000617248,0.00358674,0.0,60.5,60.5,60.5,0.0,0.0,0.0,0.0,1,1,0.0,1,1.0,0,1.0,0,1.0,0,1.0
345,415,'1',0.0070993,0.0651236,0.0230783,145.0,145.0,145.0,0.0,0.0,0.0,0.0,1,1,0.0,1,1.0,0,1.0,0,1.0,0,1.0
104,191,'1',0.00517651,0.0474854,0.0168277,145.0,145.0,145.0,0.0,0.0,0.0,0.0,1,1,0.0,1,1.0,0,1.0,0,1.0,0,1.0
407,80,'1',0.000818,0.010825,0.228132,1050.0,1050.0,1050.0,0.0,0.0,0.0,0.0,1,1,0.0,1,1.0,0,1.0,0,1.0,0,1.0
385,384,'1',0.000568228,0.00314811,0.0,48.1,48.1,48.1,0.0,0.0,0.0,0.0,1,1,0.0,1,1.0,0,1.0,0,1.0,0,1.0
344,342,'1',0.000571459,0.00387609,0.0,3.3,3.3,3.3,0.0,0.0,0.0,0.0,1,1,0.0,1,1.0,0,1.0,0,1.0,0,1.0
77,76,'1',0.000695009,0.00331266,0.0,12.2,12.2,12.2,0.0,0.0,0.0,0.0,1,1,0.0,1,1.0,0,1.0,0,1.0,0,1.0
7,262,'1',0.000946655,0.0137492,0.239936,900.0,900.0,900.0,0.0,0.0,0.0,0.0,1,1,0.0,1,1.0,0,1.0,0,1.0,0,1.0
87,141,'1',0.001846,0.017727,0.005723,520.0,520.0,520.0,0.0,0.0,0.0,0.0,1,1,0.0,1,1.0,0,1.0,0,1.0,0,1.0
424,423,'1',0.000683064,0.00386377,0.0,273.2,273.2,273.2,0.0,0.0,0.0,0.0,1,1,0.0,1,1.0,0,1.0,0,1.0,0,1.0
68,314,'1',0.00180512,0.0173337,0.00559552,220.0,220.0,220.0,0.0,0.0,0.0,0.0,1,1,0.0,1,1.0,0,1.0,0,1.0,0,1.0
298,426,'1',0.00324061,0.031118,0.0100452,214.0,214.0,214.0,0.0,0.0,0.0,0.0,1,1,0.0,1,1.0,0,1.0,0,1.0,0,1.0
313,312,'1',0.000642156,0.00397638,0.0,17.9,17.9,17.9,0.0,0.0,0.0,0.0,1,1,0.0,1,1.0,0,1.0,0,1.0,0,1.0
452,76,'1',0.002012,0.019322,0.006237,330.0,330.0,330.0,0.0,0.0,0.0,0.0,1,1,0.0,1,1.0,0,1.0,0,1.0,0,1.0
318,176,'1',0.00342716,0.0329094,0.0106235,270.0,270.0,270.0,0.0,0.0,0.0,0.0,1,1,0.0,1,1.0,0,1.0,0,1.0,0,1.0
324,129,'1',0.00187843,0.0172313,0.00610636,195.0,195.0,195.0,0.0,0.0,0.0,0.0,1,1,0.0,1,1.0,0,1.0,0,1.0,0,1.0
240,272,'1',0.0116447,0.10682,0.0378543,145.0,145.0,145.0,0.0,0.0,0.0,0.0,1,1,0.0,1,1.0,0,1.0,0,1.0,0,1.0
38,37,'1',0.0005458,0.00382289,0.0,0.2,0.2,0.2,0.0,0.0,0.0,0.0,1,1,0.0,1,1.0,0,1.0,0,1.0,0,1.0
479,354,'1',0.0043762,0.0420226,0.0135654,145.0,145.0,145.0,0.0,0.0,0.0,0.0,1,1,0.0,1,1.0,0,1.0,0,1.0,0,1.0
287,476,'1',0.00744142,0.068262,0.0241904,145.0,145.0,145.0,0.0,0.0,0.0,0.0,1,1,0.0,1,1.0,0,1.0,0,1.0,0,1.0
247,401,'1',0.00487,0.0469,0.0152,350.0,350.0,350.0,0.0,0.0,0.0,0.0,1,1,0.0,1,1.0,0,1.0,0,1.0,0,1.0
237,236,'1',0.00069641,0.00334834,0.0,4.3,4.3,4.3,0.0,0.0,0.0,0.0,1,1,0.0,1,1.0,0,1.0,0,1.0,0,1.0
263,476,'1',0.00180605,0.0173426,0.0055984,300.0,300.0,300.0,0.0,0.0,0.0,0.0,1,1,0.0,1,1.0,0,1.0,0,1.0,0,1.0
246,332,'1',0.000921,0.01337,0.233322,900.0,900.0,900.0,0.0,0.0,0.0,0.0,1,1,0.0,1,1.0,0,1.0,0,1.0,0,1.0
239,238,'1',0.00051265,0.00361852,0.0,64.1,64.1,64.1,0.0,0.0,0.0,0.0,1,1,0.0,1,1.0,0,1.0,0,1.0,0,1.0
137,426,'1',0.00299838,0.028792,0.00929439,145.0,145.0,145.0,0.0,0.0,0.0,0.0,1,1,0.0,1,1.0,0,1.0,0,1.0,0,1.0
19,112,'1',0.00472218,0.0453449,0.0146378,145.0,145.0,145.0,0.0,0.0,0.0,0.0,1,1,0.0,1,1.0,0,1.0,0,1.0,0,1.0
27,382,'1',0.00336979,0.0309119,0.0109544,185.0,185.0,185.0,0.0,0.0,0.0,0.0,1,1,0.0,1,1.0,0,1.0,0,1.0,0,1.0
325,324,'1',0.000536707,0.00371226,0.0,146.4,146.4,146.4,0.0,0.0,0.0,0.0,1,1,0.0,1,1.0,0,1.0,0,1.0,0,1.0
358,48,'1',0.00450039,0.0412832,0.0146298,270.0,270.0,270.0,0.0,0.0,0.0,0.0,1,1,0.0,1,1.0,0,1.0,0,1.0,0,1.0
2,1,'1',0.000530993,0.00313968,0.0,76.5,76.5,76.5,0.0,0.0,0.0,0.0,1,1,0.0,1,1.0,0,1.0,0,1.0,0,1.0
162,195,'1',0.00022552,0.00327545,0.0571594,1050.0,1050.0,1050.0,0.0,0.0,0.0,0.0,1,1,0.0,1,1.0,0,1.0,0,1.0,0,1.0
419,102,'1',0.00363843,0.0349382,0.0112784,270.0,270.0,270.0,0.0,0.0,0.0,0.0,1,1,0.0,1,1.0,0,1.0,0,1.0,0,1.0
284,283,'1',0.000645217,0.00398837,0.0,48.1,48.1,48.1,0.0,0.0,0.0,0.0,1,1,0.0,1,1.0,0,1.0,0,1.0,0,1.0
253,417,'1',0.00533251,0.0489164,0.0173348,185.0,185.0,185.0,0.0,0.0,0.0,0.0,1,1,0.0,1,1.0,0,1.0,0,1.0,0,1.0
79,78,'1',0.000622277,0.00327852,0.0,0.5,0.5,0.5,0.0,0.0,0.0,0.0,1,1,0.0,1,1.0,0,1.0,0,1.0,0,1.0
445,461,'1',0.00331009,0.0317853,0.0102606,220.0,220.0,220.0,0.0,0.0,0.0,0.0,1,1,0.0,1,1.0,0,1.0,0,1.0,0,1.0
148,147,'1',0.000592694,0.00393511,0.0,102.4,102.4,102.4,0.0,0.0,0.0,0.0,1,1,0.0,1,1.0,0,1.0,0,1.0,0,1.0
263,326,'1',0.00252323,0.0242294,0.00782151,270.0,270.0,270.0,0.0,0.0,0.0,0.0,1,1,0.0,1,1.0,0,1.0,0,1.0,0,1.0
98,97,'1',0.000568811,0.00398603,0.0,66.4,66.4,66.4,0.0,0.0,0.0,0.0,1,1,0.0,1,1.0,0,1.0,0,1.0,0,1.0
233,53,'1',0.00236198,0.0216671,0.0076783,200.0,200.0,200.0,0.0,0.0,0.0,0.0,1,1,0.0,1,1.0,0,1.0,0,1.0,0,1.0
44,1,'1',0.00547862,0.0502567,0.0178098,250.0,250.0,250.0,0.0,0.0,0.0,0.0,1,1,0.0,1,1.0,0,1.0,0,1.0,0,1.0
387,470,'1',0.00213792,0.0196117,0.00694992,220.0,220.0,220.0,0.0,0.0,0.0,0.0,1,1,0.0,1,1.0,0,1.0,0,1.0,0,1.0
492,336,'1',0.00632071,0.0606948,0.019593,200.0,200.0,200.0,0.0,0.0,0.0,0.0,1,1,0.0,1,1.0,0,1.0,0,1.0,0,1.0
441,384,'1',0.0029362,0.0281949,0.00910164,240.0,240.0,240.0,0.0,0.0,0.0,0.0,1,1,0.0,1,1.0,0,1.0,0,1.0,0,1.0
496,143,'1',0.002039,0.019581,0.006321,350.0,350.0,350.0,0.0,0.0,0.0,0.0,1,1,0.0,1,1.0,0,1.0,0,1.0,0,1.0
471,464,'1',0.000427185,0.00612773,0.10966,900.0,900.0,900.0,0.0,0.0,0.0,0.0,1,1,0.0,1,1.0,0,1.0,0,1.0,0,1.0
318,336,'1',0.00546744,0.0501542,0.0177735,300.0,300.0,300.0,0.0,0.0,0.0,0.0,1,1,0.0,1,1.0,0,1.0,0,1.0,0,1.0
7,232,'1',0.00111912,0.0148076,0.312051,1100.0,1100.0,1100.0,0.0,0.0,0.0,0.0,1,1,0.0,1,1.0,0,1.0,0,1.0,0,1.0
421,1,'1',0.00536892,0.0515552,0.0166426,200.0,200.0,200.0,0.0,0.0,0.0,0.0,1,1,0.0,1,1.0,0,1.0,0,1.0,0,1.0
183,247,'1',0.00196488,0.0188679,0.00609076,270.0,270.0,270.0,0.0,0.0,0.0,0.0,1,1,0.0,1,1.0,0,1.0,0,1.0,0,1.0
358,310,'1',0.00293095,0.0268863,0.00952786,270.0,270.0,270.0,0.0,0.0,0.0,0.0,1,1,0.0,1,1.0,0,1.0,0,1.0,0,1.0
359,358,'1',0.000669913,0.00350635,0.0,25.0,25.0,25.0,0.0,0.0,0.0,0.0,1,1,0.0,1,1.0,0,1.0,0,1.0,0,1.0
288,287,'1',0.000506508,0.00381802,0.0,89.9,89.9,89.9,0.0,0.0,0.0,0.0,1,1,0.0,1,1.0,0,1.0,0,1.0,0,1.0
317,316,'1',0.00067118,0.00304543,0.0,5.5,5.5,5.5,0.0,0.0,0.0,0.0,1,1,0.0,1,1.0,0,1.0,0,1.0,0,1.0
89,457,'1',0.009012,0.082666,0.029295,145.0,145.0,145.0,0.0,0.0,0.0,0.0,1,1,0.0,1,1.0,0,1.0,0,1.0,0,1.0
378,318,'1',0.00130141,0.0124968,0.00403411,145.0,145.0,145.0,0.0,0.0,0.0,0.0,1,1,0.0,1,1.0,0,1.0,0,1.0,0,1.0
446,445,'1',0.000680376,0.00357927,0.0,130.2,130.2,130.2,0.0,0.0,0.0,0.0,1,1,0.0,1,1.0,0,1.0,0,1.0,0,1.0
232,371,'1',0.000493662,0.00653187,0.137651,1350.0,1350.0,1350.0,0.0,0.0,0.0,0.0,1,1,0.0,1,1.0,0,1.0,0,1.0,0,1.0
134,133,'1',0.000515032,0.00308264,0.0,66.0,66.0,66.0,0.0,0.0,0.0,0.0,1,1,0.0,1,1.0,0,1.0,0,1.0,0,1.0
500,489,'1',0.00469552,0.0430732,0.0152641,145.0,145.0,145.0,0.0,0.0,0.0,0.0,1,1,0.0,1,1.0,0,1.0,0,1.0,0,1.0
114,191,'1',0.00555724,0.0533636,0.0172264,145.0,145.0,145.0,0.0,0.0,0.0,0.0,1,1,0.0,1,1.0,0,1.0,0,1.0,0,1.0
112,236,'1',0.00632924,0.0607768,0.0196194,300.0,300.0,300.0,0.0,0.0,0.0,0.0,0,1,0.0,1,1.0,0,1.0,0,1.0,0,1.0
293,149,'1',0.00438547,0.0421116,0.0135941,220.0,220.0,220.0,0.0,0.0,0.0,0.0,1,1,0.0,1,1.0,0,1.0,0,1.0,0,1.0
417,251,'1',0.00426246,0.0409304,0.0132128,145.0,145.0,145.0,0.0,0.0,0.0,0.0,1,1,0.0,1,1.0,0,1.0,0,1.0,0,1.0
470,467,'1',0.00163163,0.0149673,0.00530406,160.0,160.0,160.0,0.0,0.0,0.0,0.0,1,1,0.0,1,1.0,0,1.0,0,1.0,0,1.0
373,372,'1',0.000581254,0.0031808,0.0,48.5,48.5,48.5,0.0,0.0,0.0,0.0,1,1,0.0,1,1.0,0,1.0,0,1.0,0,1.0
220,471,'1',0.000978053,0.0142053,0.247894,900.0,900.0,900.0,0.0,0.0,0.0,0.0,1,1,0.0,1,1.0,0,1.0,0,1.0,0,1.0
229,228,'1',0.000589618,0.00358921,0.0,77.9,77.9,77.9,0.0,0.0,0.0,0.0,1,1,0.0,1,1.0,0,1.0,0,1.0,0,1.0
46,156,'1',0.00661096,0.0634819,0.0204927,185.0,185.0,185.0,0.0,0.0,0.0,0.0,1,1,0.0,1,1.0,0,1.0,0,1.0,0,1.0
493,380,'1',0.00340932,0.0327381,0.0105682,155.0,155.0,155.0,0.0,0.0,0.0,0.0,1,1,0.0,1,1.0,0,1.0,0,1.0,0,1.0
266,263,'1',0.000570619,0.00340574,0.0,107.2,107.2,107.2,0.0,0.0,0.0,0.0,1,1,0.0,1,1.0,0,1.0,0,1.0,0,1.0
172,244,'1',0.00329067,0.0315987,0.0102004,270.0,270.0,270.0,0.0,0.0,0.0,0.0,1,1,0.0,1,1.0,0,1.0,0,1.0,0,1.0
282,281,'1',0.000538938,0.00361703,0.0,203.7,203.7,203.7,0.0,0.0,0.0,0.0,1,1,0.0,1,1.0,0,1.0,0,1.0,0,1.0
263,276,'1',0.000863908,0.0082957,0.00267795,220.0,220.0,220.0,0.0,0.0,0.0,0.0,1,1,0.0,1,1.0,0,1.0,0,1.0,0,1.0
252,251,'1',0.000660875,0.00386313,0.0,171.6,171.6,171.6,0.0,0.0,0.0,0.0,1,1,0.0,1,1.0,0,1.0,0,1.0,0,1.0
173,172,'1',0.000675383,0.00313387,0.0,4.7,4.7,4.7,0.0,0.0,0.0,0.0,1,1,0.0,1,1.0,0,1.0,0,1.0,0,1.0
76,37,'1',0.00147415,0.0141555,0.00456957,270.0,270.0,270.0,0.0,0.0,0.0,0.0,1,1,0.0,1,1.0,0,1.0,0,1.0,0,1.0
160,399,'1',0.0040147,0.0368278,0.0130509,145.0,145.0,145.0,0.0,0.0,0.0,0.0,1,1,0.0,1,1.0,0,1.0,0,1.0,0,1.0
39,428,'1',0.000521367,0.00689845,0.145376,900.0,900.0,900.0,0.0,0.0,0.0,0.0,1,1,0.0,1,1.0,0,1.0,0,1.0,0,1.0
324,322,'1',0.00157189,0.0144193,0.00510986,240.0,240.0,240.0,0.0,0.0,0.0,0.0,1,1,0.0,1,1.0,0,1.0,0,1.0,0,1.0
397,387,'1',0.000513983,0.00329999,0.0,66.7,66.7,66.7,0.0,0.0,0.0,0.0,1,1,0.0,1,1.0,0,1.0,0,1.0,0,1.0
329,328,'1',0.000553797,0.00303403,0.0,40.7,40.7,40.7,0.0,0.0,0.0,0.0,1,1,0.0,1,1.0,0,1.0,0,1.0,0,1.0
270,269,'1',0.000573616,0.0039766,0.0,10.9,10.9,10.9,0.0,0.0,0.0,0.0,1,1,0.0,1,1.0,0,1.0,0,1.0,0,1.0
372,112,'1',0.0020065,0.0192675,0.00621976,285.0,285.0,285.0,0.0,0.0,0.0,0.0,1,1,0.0,1,1.0,0,1.0,0,1.0,0,1.0
221,447,'1',0.00396967,0.0381188,0.0123052,220.0,220.0,220.0,0.0,0.0,0.0,0.0,1,1,0.0,1,1.0,0,1.0,0,1.0,0,1.0
81,42,'1',0.00236124,0.0216602,0.00767586,270.0,270.0,270.0,0.0,0.0,0.0,0.0,1,1,0.0,1,1.0,0,1.0,0,1.0,0,1.0
462,477,'1',0.00501341,0.0481414,0.0155406,185.0,185.0,185.0,0.0,0.0,0.0,0.0,1,1,0.0,1,1.0,0,1.0,0,1.0,0,1.0
105,104,'1',0.000672543,0.00375095,0.0,144.2,144.2,144.2,0.0,0.0,0.0,0.0,1,1,0.0,1,1.0,0,1.0,0,1.0,0,1.0
164,163,'1',0.000650023,0.00398739,0.0,174.5,174.5,174.5,0.0,0.0,0.0,0.0,1,1,0.0,1,1.0,0,1.0,0,1.0,0,1.0
276,485,'1',0.00262915,0.0241178,0.00854678,230.0,230.0,230.0,0.0,0.0,0.0,0.0,1,1,0.0,1,1.0,0,1.0,0,1.0,0,1.0
295,447,'1',0.00341966,0.0313694,0.0111166,185.0,185.0,185.0,0.0,0.0,0.0,0.0,1,1,0.0,1,1.0,0,1.0,0,1.0,0,1.0
234,233,'1',0.000551109,0.00341483,0.0,95.7,95.7,95.7,0.0,0.0,0.0,0.0,1,1,0.0,1,1.0,0,1.0,0,1.0,0,1.0
110,316,'1',0.00343915,0.0330245,0.0106607,145.0,145.0,145.0,0.0,0.0,0.0,0.0,1,1,0.0,1,1.0,0,1.0,0,1.0,0,1.0
29,491,'1',0.005607,0.053837,0.017379,145.0,145.0,145.0,0.0,0.0,0.0,0.0,1,1,0.0,1,1.0,0,1.0,0,1.0,0,1.0
365,374,'1',0.00283585,0.0272314,0.00879059,220.0,220.0,220.0,0.0,0.0,0.0,0.0,1,1,0.0,1,1.0,0,1.0,0,1.0,0,1.0
136,135,'1',0.000548777,0.0036604,0.0,45.6,45.6,45.6,0.0,0.0,0.0,0.0,1,1,0.0,1,1.0,0,1.0,0,1.0,0,1.0
336,93,'1',0.00579454,0.0531548,0.0188368,270.0,270.0,270.0,0.0,0.0,0.0,0.0,1,1,0.0,1,1.0,0,1.0,0,1.0,0,1.0
121,287,'1',0.00708754,0.0680583,0.02197,145.0,145.0,145.0,0.0,0.0,0.0,0.0,1,1,0.0,1,1.0,0,1.0,0,1.0,0,1.0
219,218,'1',0.000580603,0.00365749,0.0,0.6,0.6,0.6,0.0,0.0,0.0,0.0,1,1,0.0,1,1.0,0,1.0,0,1.0,0,1.0
294,293,'1',0.000645158,0.00329026,0.0,35.7,35.7,35.7,0.0,0.0,0.0,0.0,1,1,0.0,1,1.0,0,1.0,0,1.0,0,1.0
290,289,'1',0.000542556,0.00380663,0.0,5.9,5.9,5.9,0.0,0.0,0.0,0.0,1,1,0.0,1,1.0,0,1.0,0,1.0,0,1.0
387,467,'1',0.00315075,0.0289026,0.0102424,220.0,220.0,220.0,0.0,0.0,0.0,0.0,1,1,0.0,1,1.0,0,1.0,0,1.0,0,1.0
205,312,'1',0.00676658,0.0620715,0.0219967,145.0,145.0,145.0,0.0,0.0,0.0,0.0,1,1,0.0,1,1.0,0,1.0,0,1.0,0,1.0
491,326,'1',0.00238927,0.0229431,0.00740628,145.0,145.0,145.0,0.0,0.0,0.0,0.0,1,1,0.0,1,1.0,0,1.0,0,1.0,0,1.0
21,112,'1',0.00509204,0.0488965,0.0157843,270.0,270.0,270.0,0.0,0.0,0.0,0.0,1,1,0.0,1,1.0,0,1.0,0,1.0,0,1.0
171,170,'1',0.000512598,0.00377412,0.0,20.9,20.9,20.9,0.0,0.0,0.0,0.0,1,1,0.0,1,1.0,0,1.0,0,1.0,0,1.0
44,200,'1',0.00210518,0.0193113,0.00684347,250.0,250.0,250.0,0.0,0.0,0.0,0.0,1,1,0.0,1,1.0,0,1.0,0,1.0,0,1.0
209,208,'1',0.000513638,0.00360087,0.0,141.4,141.4,141.4,0.0,0.0,0.0,0.0,1,1,0.0,1,1.0,0,1.0,0,1.0,0,1.0
112,33,'1',0.00706143,0.0678076,0.021889,220.0,220.0,220.0,0.0,0.0,0.0,0.0,1,1,0.0,1,1.0,0,1.0,0,1.0,0,1.0
207,205,'1',0.000653174,0.00370043,0.0,30.4,30.4,30.4,0.0,0.0,0.0,0.0,1,1,0.0,1,1.0,0,1.0,0,1.0,0,1.0
342,10,'1',0.00282453,0.0271226,0.00875548,145.0,145.0,145.0,0.0,0.0,0.0,0.0,1,1,0.0,1,1.0,0,1.0,0,1.0,0,1.0
137,426,'2',0.003,0.02879,0.00929,320.3,320.3,320.3,0.0,0.0,0.0,0.0,1,1,0.0,1,1.0,0,1.0,0,1.0,0,1.0
53,276,'1',0.0015021,0.0144239,0.00465621,200.0,200.0,200.0,0.0,0.0,0.0,0.0,1,1,0.0,1,1.0,0,1.0,0,1.0,0,1.0
142,141,'1',0.000686707,0.00341671,0.0,209.8,209.8,209.8,0.0,0.0,0.0,0.0,1,1,0.0,1,1.0,0,1.0,0,1.0,0,1.0
279,340,'1',0.00596497,0.0572788,0.0184902,145.0,145.0,145.0,0.0,0.0,0.0,0.0,1,1,0.0,1,1.0,0,1.0,0,1.0,0,1.0
35,399,'1',0.005636,0.054123,0.017472,270.0,270.0,270.0,0.0,0.0,0.0,0.0,1,1,0.0,1,1.0,0,1.0,0,1.0,0,1.0
165,123,'1',0.000216027,0.00313758,0.0547534,900.0,900.0,900.0,0.0,0.0,0.0,0.0,1,1,0.0,1,1.0,0,1.0,0,1.0,0,1.0
15,230,'1',0.0108937,0.104607,0.0337685,220.0,220.0,220.0,0.0,0.0,0.0,0.0,1,1,0.0,1,1.0,0,1.0,0,1.0,0,1.0
425,297,'1',0.000275222,0.00399733,0.0697568,900.0,900.0,900.0,0.0,0.0,0.0,0.0,1,1,0.0,1,1.0,0,1.0,0,1.0,0,1.0
23,386,'1',0.001642,0.023851,0.416226,1000.0,1000.0,1000.0,0.0,0.0,0.0,0.0,1,1,0.0,1,1.0,0,1.0,0,1.0,0,1.0
15,91,'1',0.00479928,0.0460852,0.0148768,160.0,160.0,160.0,0.0,0.0,0.0,0.0,1,1,0.0,1,1.0,0,1.0,0,1.0,0,1.0
333,330,'1',0.00151771,0.0145739,0.00470462,185.0,185.0,185.0,0.0,0.0,0.0,0.0,1,1,0.0,1,1.0,0,1.0,0,1.0,0,1.0
243,242,'1',0.000605884,0.00370239,0.0,130.7,130.7,130.7,0.0,0.0,0.0,0.0,1,1,0.0,1,1.0,0,1.0,0,1.0,0,1.0
322,58,'2',0.00202,0.01939,0.00626,320.3,320.3,320.3,0.0,0.0,0.0,0.0,1,1,0.0,1,1.0,0,1.0,0,1.0,0,1.0
377,376,'1',0.000501927,0.0033547,0.0,162.4,162.4,162.4,0.0,0.0,0.0,0.0,1,1,0.0,1,1.0,0,1.0,0,1.0,0,1.0
285,230,'1',0.002749,0.0263974,0.00852136,220.0,220.0,220.0,0.0,0.0,0.0,0.0,1,1,0.0,1,1.0,0,1.0,0,1.0,0,1.0
296,295,'1',0.000531059,0.00343349,0.0,10.8,10.8,10.8,0.0,0.0,0.0,0.0,1,1,0.0,1,1.0,0,1.0,0,1.0,0,1.0
193,19,'1',0.00222052,0.0213226,0.00688319,270.0,270.0,270.0,0.0,0.0,0.0,0.0,1,1,0.0,1,1.0,0,1.0,0,1.0,0,1.0
104,31,'1',0.00552581,0.0530617,0.0171289,145.0,145.0,145.0,0.0,0.0,0.0,0.0,1,1,0.0,1,1.0,0,1.0,0,1.0,0,1.0
133,369,'1',0.00615507,0.056462,0.0200088,300.0,300.0,300.0,0.0,0.0,0.0,0.0,1,1,0.0,1,1.0,0,1.0,0,1.0,0,1.0
312,267,'1',0.00447631,0.0429839,0.0138757,145.0,145.0,145.0,0.0,0.0,0.0,0.0,1,1,0.0,1,1.0,0,1.0,0,1.0,0,1.0
338,459,'1',0.00195151,0.0179017,0.00634393,220.0,220.0,220.0,0.0,0.0,0.0,0.0,1,1,0.0,1,1.0,0,1.0,0,1.0,0,1.0
204,202,'1',0.000553104,0.00388927,0.0,72.7,72.7,72.7,0.0,0.0,0.0,0.0,1,1,0.0,1,1.0,0,1.0,0,1.0,0,1.0
492,405,'1',0.00432133,0.0414957,0.0133953,170.0,170.0,170.0,0.0,0.0,0.0,0.0,1,1,0.0,1,1.0,0,1.0,0,1.0,0,1.0
245,244,'1',0.000597782,0.00315264,0.0,15.8,15.8,15.8,0.0,0.0,0.0,0.0,1,1,0.0,1,1.0,0,1.0,0,1.0,0,1.0
60,131,'1',0.0019849,0.018208,0.00645249,185.0,185.0,185.0,0.0,0.0,0.0,0.0,1,1,0.0,1,1.0,0,1.0,0,1.0,0,1.0
399,312,'1',0.00482155,0.0462991,0.0149459,145.0,145.0,145.0,0.0,0.0,0.0,0.0,1,1,0.0,1,1.0,0,1.0,0,1.0,0,1.0
300,141,'1',0.00267026,0.024495,0.00868044,430.0,430.0,430.0,0.0,0.0,0.0,0.0,1,1,0.0,1,1.0,0,1.0,0,1.0,0,1.0
138,137,'1',0.000555555,0.00378798,0.0,122.9,122.9,122.9,0.0,0.0,0.0,0.0,1,1,0.0,1,1.0,0,1.0,0,1.0,0,1.0
146,162,'1',0.000284645,0.00408307,0.0730692,1100.0,1100.0,1100.0,0.0,0.0,0.0,0.0,1,1,0.0,1,1.0,0,1.0,0,1.0,0,1.0
315,314,'1',0.000535865,0.003143,0.0,0.7,0.7,0.7,0.0,0.0,0.0,0.0,1,1,0.0,1,1.0,0,1.0,0,1.0,0,1.0
31,205,'1',0.00779682,0.0748692,0.0241686,145.0,145.0,145.0,0.0,0.0,0.0,0.0,1,1,0.0,1,1.0,0,1.0,0,1.0,0,1.0
10,349,'1',0.00140166,0.0134595,0.00434489,145.0,145.0,145.0,0.0,0.0,0.0,0.0,1,1,0.0,1,1.0,0,1.0,0,1.0,0,1.0
279,468,'1',0.00320398,0.0307663,0.00993172,145.0,145.0,145.0,0.0,0.0,0.0,0.0,1,1,0.0,1,1.0,0,1.0,0,1.0,0,1.0
488,156,'1',0.00186134,0.0170745,0.0060508,280.0,280.0,280.0,0.0,0.0,0.0,0.0,1,1,0.0,1,1.0,0,1.0,0,1.0,0,1.0
21,196,'1',0.00220719,0.0202471,0.00717509,365.0,365.0,365.0,0.0,0.0,0.0,0.0,1,1,0.0,1,1.0,0,1.0,0,1.0,0,1.0
51,48,'1',0.000657783,0.00367224,0.0,0.6,0.6,0.6,0.0,0.0,0.0,0.0,1,1,0.0,1,1.0,0,1.0,0,1.0,0,1.0
460,340,'1',0.00369817,0.0355118,0.0114636,145.0,145.0,145.0,0.0,0.0,0.0,0.0,1,1,0.0,1,1.0,0,1.0,0,1.0,0,1.0
64,62,'1',0.000661196,0.00327389,0.0,45.6,45.6,45.6,0.0,0.0,0.0,0.0,1,1,0.0,1,1.0,0,1.0,0,1.0,0,1.0
215,214,'1',0.000578396,0.00381322,0.0,124.1,124.1,124.1,0.0,0.0,0.0,0.0,1,1,0.0,1,1.0,0,1.0,0,1.0,0,1.0
92,91,'1',0.0005717,0.00361724,0.0,104.2,104.2,104.2,0.0,0.0,0.0,0.0,1,1,0.0,1,1.0,0,1.0,0,1.0,0,1.0
303,300,'1',0.000645747,0.00399684,0.0,139.2,139.2,139.2,0.0,0.0,0.0,0.0,1,1,0.0,1,1.0,0,1.0,0,1.0,0,1.0
28,27,'1',0.000686715,0.00396302,0.0,108.6,108.6,108.6,0.0,0.0,0.0,0.0,1,1,0.0,1,1.0,0,1.0,0,1.0,0,1.0
108,495,'1',0.00361075,0.0346724,0.0111926,220.0,220.0,220.0,0.0,0.0,0.0,0.0,1,1,0.0,1,1.0,0,1.0,0,1.0,0,1.0
405,300,'1',0.00337403,0.0323992,0.0104588,170.0,170.0,170.0,0.0,0.0,0.0,0.0,1,1,0.0,1,1.0,0,1.0,0,1.0,0,1.0
54,53,'1',0.000680462,0.00306134,0.0,51.3,51.3,51.3,0.0,0.0,0.0,0.0,1,1,0.0,1,1.0,0,1.0,0,1.0,0,1.0
440,57,'1',0.000600772,0.00872563,0.15227,900.0,900.0,900.0,0.0,0.0,0.0,0.0,1,1,0.0,1,1.0,0,1.0,0,1.0,0,1.0
401,5,'1',0.00488619,0.0469198,0.0151462,145.0,145.0,145.0,0.0,0.0,0.0,0.0,1,1,0.0,1,1.0,0,1.0,0,1.0,0,1.0
259,253,'1',0.000651994,0.00357883,0.0,11.9,11.9,11.9,0.0,0.0,0.0,0.0,1,1,0.0,1,1.0,0,1.0,0,1.0,0,1.0
429,466,'1',0.00185252,0.0169936,0.00602214,145.0,145.0,145.0,0.0,0.0,0.0,0.0,1,1,0.0,1,1.0,0,1.0,0,1.0,0,1.0
356,208,'1',0.00255401,0.0245249,0.00791693,270.0,270.0,270.0,0.0,0.0,0.0,0.0,1,1,0.0,1,1.0,0,1.0,0,1.0,0,1.0
162,220,'1',0.00139,0.018388,0.387505,1100.0,1100.0,1100.0,0.0,0.0,0.0,0.0,1,1,0.0,1,1.0,0,1.0,0,1.0,0,1.0
106,191,'1',0.00446795,0.0429036,0.0138498,270.0,270.0,270.0,0.0,0.0,0.0,0.0,1,1,0.0,1,1.0,0,1.0,0,1.0,0,1.0
495,449,'1',0.00176246,0.0161675,0.00572937,270.0,270.0,270.0,0.0,0.0,0.0,0.0,1,1,0.0,1,1.0,0,1.0,0,1.0,0,1.0
121,276,'1',0.00254757,0.0244631,0.00789698,145.0,145.0,145.0,0.0,0.0,0.0,0.0,1,1,0.0,1,1.0,0,1.0,0,1.0,0,1.0
244,426,'1',0.00370005,0.0339415,0.012028,145.0,145.0,145.0,0.0,0.0,0.0,0.0,1,1,0.0,1,1.0,0,1.0,0,1.0,0,1.0
160,212,'1',0.00256703,0.02465,0.00795729,145.0,145.0,145.0,0.0,0.0,0.0,0.0,1,1,0.0,1,1.0,0,1.0,0,1.0,0,1.0
355,354,'1',0.00068847,0.00376008,0.0,28.3,28.3,28.3,0.0,0.0,0.0,0.0,1,1,0.0,1,1.0,0,1.0,0,1.0,0,1.0
286,285,'1',0.0006672,0.00326582,0.0,13.4,13.4,13.4,0.0,0.0,0.0,0.0,1,1,0.0,1,1.0,0,1.0,0,1.0,0,1.0
175,220,'1',0.00109884,0.0159595,0.278508,1050.0,1050.0,1050.0,0.0,0.0,0.0,0.0,0,1,0.0,1,1.0,0,1.0,0,1.0,0,1.0
202,172,'1',0.00407306,0.0391117,0.0126257,145.0,145.0,145.0,0.0,0.0,0.0,0.0,1,1,0.0,1,1.0,0,1.0,0,1.0,0,1.0
477,295,'1',0.00348556,0.0334702,0.0108046,300.0,300.0,300.0,0.0,0.0,0.0,0.0,1,1,0.0,1,1.0,0,1.0,0,1.0,0,1.0
143,338,'1',0.00211583,0.019409,0.0068781,250.0,250.0,250.0,0.0,0.0,0.0,0.0,1,1,0.0,1,1.0,0,1.0,0,1.0,0,1.0
115,114,'1',0.000506233,0.00336036,0.0,6.7,6.7,6.7,0.0,0.0,0.0,0.0,1,1,0.0,1,1.0,0,1.0,0,1.0,0,1.0
107,106,'1',0.000574563,0.00320633,0.0,24.5,24.5,24.5,0.0,0.0,0.0,0.0,1,1,0.0,1,1.0,0,1.0,0,1.0,0,1.0
90,89,'1',0.000554087,0.00386402,0.0,10.5,10.5,10.5,0.0,0.0,0.0,0.0,1,1,0.0,1,1.0,0,1.0,0,1.0,0,1.0
348,347,'1',0.000578713,0.003119,0.0,138.5,138.5,138.5,0.0,0.0,0.0,0.0,1,1,0.0,1,1.0,0,1.0,0,1.0,0,1.0
23,471,'1',0.000532103,0.0070405,0.14837,1100.0,1100.0,1100.0,0.0,0.0,0.0,0.0,1,1,0.0,1,1.0,0,1.0,0,1.0,0,1.0
335,333,'1',0.000626899,0.00355176,0.0,1.3,1.3,1.3,0.0,0.0,0.0,0.0,1,1,0.0,1,1.0,0,1.0,0,1.0,0,1.0
86,85,'1',0.00065231,0.00390108,0.0,30.0,30.0,30.0,0.0,0.0,0.0,0.0,1,1,0.0,1,1.0,0,1.0,0,1.0,0,1.0
95,369,'1',0.00409437,0.0393163,0.0126918,270.0,270.0,270.0,0.0,0.0,0.0,0.0,1,1,0.0,1,1.0,0,1.0,0,1.0,0,1.0
103,102,'1',0.000613984,0.00387398,0.0,64.6,64.6,64.6,0.0,0.0,0.0,0.0,1,1,0.0,1,1.0,0,1.0,0,1.0,0,1.0
61,60,'1',0.000528782,0.00351793,0.0,0.3,0.3,0.3,0.0,0.0,0.0,0.0,1,1,0.0,1,1.0,0,1.0,0,1.0,0,1.0
253,119,'1',0.00149439,0.0143499,0.00463231,250.0,250.0,250.0,0.0,0.0,0.0,0.0,1,1,0.0,1,1.0,0,1.0,0,1.0,0,1.0
450,449,'1',0.000521353,0.00332782,0.0,1.5,1.5,1.5,0.0,0.0,0.0,0.0,1,1,0.0,1,1.0,0,1.0,0,1.0,0,1.0
371,195,'1',0.000450918,0.0059663,0.125732,1350.0,1350.0,1350.0,0.0,0.0,0.0,0.0,1,1,0.0,1,1.0,0,1.0,0,1.0,0,1.0
242,320,'1',0.003028,0.029073,0.009385,300.0,300.0,300.0,0.0,0.0,0.0,0.0,1,1,0.0,1,1.0,0,1.0,0,1.0,0,1.0
...
0 / end non-transformer branch section
222,220,0,'1',1,1,1,0.0,0.0,2,'            ',1,1,1.0,0,1.0,0,1.0,0,1.0,'            '
0.000484613,0.02225,228.0
1.0,13.8,0.0,228.0,228.0,228.0,0,0,1.5,0.51,1.5,0.51,159,0,0.0,0.0,0.0
1.0,345.0
163,162,0,'1',1,1,1,0.0,0.0,2,'            ',1,1,1.0,0,1.0,0,1.0,0,1.0,'            '
0.000344643,0.01982,510.0
1.0,138.0,0.0,510.0,510.0,510.0,0,0,1.5,0.51,1.5,0.51,159,0,0.0,0.0,0.0
1.0,345.0
298,297,0,'1',1,1,1,0.0,0.0,2,'            ',1,1,1.0,0,1.0,0,1.0,0,1.0,'            '
0.000587617,0.03135,348.0
1.0,138.0,0.0,348.0,348.0,348.0,0,0,1.5,0.51,1.5,0.51,159,0,0.0,0.0,0.0
1.0,345.0
372,371,0,'1',1,1,1,0.0,0.0,2,'            ',1,1,1.0,0,1.0,0,1.0,0,1.0,'            '
0.00025,0.03602,508.0
1.0,138.0,0.0,508.0,508.0,508.0,0,0,1.5,0.51,1.5,0.51,159,0,0.0,0.0,0.0
1.0,345.0
393,386,0,'1',1,1,1,0.0,0.0,2,'            ',1,1,1.0,0,1.0,0,1.0,0,1.0,'            '
0.00024,0.03349,283.0
1.0,13.8,0.0,283.0,283.0,283.0,0,0,1.5,0.51,1.5,0.51,159,0,0.0,0.0,0.0
1.0,345.0
16,14,0,'1',1,1,1,0.0,0.0,2,'            ',1,1,1.0,0,1.0,0,1.0,0,1.0,'            '
0.000325948,0.01202,596.0
1.0,13.8,0.0,596.0,596.0,596.0,0,0,1.5,0.51,1.5,0.51,159,0,0.0,0.0,0.0
1.0,345.0
302,300,0,'1',1,1,1,0.0,0.0,2,'            ',1,1,1.0,0,1.0,0,1.0,0,1.0,'            '
0.00367,0.07834,75.0
1.0,13.8,0.0,75.0,75.0,75.0,0,0,1.5,0.51,1.5,0.51,159,0,0.0,0.0,0.0
1.0,138.0
454,453,0,'1',1,1,1,0.0,0.0,2,'            ',1,1,1.0,0,1.0,0,1.0,0,1.0,'            '
0.0002,0.03057,710.0
1.0,138.0,0.0,710.0,710.0,710.0,0,0,1.5,0.51,1.5,0.51,159,0,0.0,0.0,0.0
1.0,345.0
163,162,0,'2',1,1,1,0.0,0.0,2,'            ',1,1,1.0,0,1.0,0,1.0,0,1.0,'            '
0.000365564,0.01982,510.0
1.0,138.0,0.0,510.0,510.0,510.0,0,0,1.5,0.51,1.5,0.51,159,0,0.0,0.0,0.0
1.0,345.0
441,440,0,'1',1,1,1,0.0,0.0,2,'            ',1,1,1.0,0,1.0,0,1.0,0,1.0,'            '
0.00058,0.02873,649.0
1.0,138.0,0.0,649.0,649.0,649.0,0,0,1.5,0.51,1.5,0.51,159,0,0.0,0.0,0.0
1.0,345.0
497,496,0,'1',1,1,1,0.0,0.0,2,'            ',1,1,1.0,0,1.0,0,1.0,0,1.0,'            '
0.00147,0.0647,204.0
1.0,13.8,0.0,204.0,204.0,204.0,0,0,1.5,0.51,1.5,0.51,159,0,0.0,0.0,0.0
1.0,138.0
63,62,0,'1',1,1,1,0.0,0.0,2,'            ',1,1,1.0,0,1.0,0,1.0,0,1.0,'            '
0.0032,0.16353,70.0
1.0,13.8,0.0,70.0,70.0,70.0,0,0,1.5,0.51,1.5,0.51,159,0,0.0,0.0,0.0
1.0,138.0
24,23,0,'1',1,1,1,0.0,0.0,2,'            ',1,1,1.0,0,1.0,0,1.0,0,1.0,'            '
0.00033,0.01764,626.0
1.0,138.0,0.0,626.0,626.0,626.0,0,0,1.5,0.51,1.5,0.51,159,0,0.0,0.0,0.0
1.0,345.0
15,14,0,'1',1,1,1,0.0,0.0,2,'            ',1,1,1.0,0,1.0,0,1.0,0,1.0,'            '
0.000207947,0.01122,682.0
1.0,138.0,0.0,682.0,682.0,682.0,0,0,1.5,0.51,1.5,0.51,159,0,0.0,0.0,0.0
1.0,345.0
353,349,0,'1',1,1,1,0.0,0.0,2,'            ',1,1,1.0,0,1.0,0,1.0,0,1.0,'            '
0.0027,0.0722,206.0
1.0,13.8,0.0,206.0,206.0,206.0,0,0,1.5,0.51,1.5,0.51,159,0,0.0,0.0,0.0
1.0,138.0
231,230,0,'1',1,1,1,0.0,0.0,2,'            ',1,1,1.0,0,1.0,0,1.0,0,1.0,'            '
0.00368,0.18877,65.0
1.0,13.8,0.0,65.0,65.0,65.0,0,0,1.5,0.51,1.5,0.51,159,0,0.0,0.0,0.0
1.0,138.0
50,48,0,'1',1,1,1,0.0,0.0,2,'            ',1,1,1.0,0,1.0,0,1.0,0,1.0,'            '
0.00715,0.16356,100.0
1.0,13.8,0.0,100.0,100.0,100.0,0,0,1.5,0.51,1.5,0.51,159,0,0.0,0.0,0.0
1.0,138.0
147,146,0,'1',1,1,1,0.0,0.0,2,'            ',1,1,1.0,0,1.0,0,1.0,0,1.0,'            '
0.00100703,0.05565,272.0
1.0,138.0,0.0,272.0,272.0,272.0,0,0,1.5,0.51,1.5,0.51,159,0,0.0,0.0,0.0
1.0,345.0
414,407,0,'1',1,1,1,0.0,0.0,2,'            ',1,1,1.0,0,1.0,0,1.0,0,1.0,'            '
0.000999477,0.04423,342.0
1.0,13.8,0.0,342.0,342.0,342.0,0,0,1.5,0.51,1.5,0.51,159,0,0.0,0.0,0.0
1.0,345.0
225,220,0,'2',1,1,1,0.0,0.0,2,'            ',1,1,1.0,0,1.0,0,1.0,0,1.0,'            '
0.00018,0.01242,628.0
1.0,13.8,0.0,628.0,628.0,628.0,0,0,1.5,0.51,1.5,0.51,159,0,0.0,0.0,0.0
1.0,345.0
8,7,0,'1',1,1,1,0.0,0.0,2,'            ',1,1,1.0,0,1.0,0,1.0,0,1.0,'            '
0.000355062,0.0129,567.0
1.0,138.0,0.0,567.0,567.0,567.0,0,0,1.5,0.51,1.5,0.51,159,0,0.0,0.0,0.0
1.0,345.0
431,428,0,'1',1,1,1,0.0,0.0,2,'            ',1,1,1.0,0,1.0,0,1.0,0,1.0,'            '
0.00037,0.03646,225.0
1.0,13.8,0.0,225.0,225.0,225.0,0,0,1.5,0.51,1.5,0.51,159,0,0.0,0.0,0.0
1.0,345.0
458,457,0,'1',1,1,1,0.0,0.0,2,'            ',1,1,1.0,0,1.0,0,1.0,0,1.0,'            '
0.00201,0.07218,207.0
1.0,13.8,0.0,207.0,207.0,207.0,0,0,1.5,0.51,1.5,0.51,159,0,0.0,0.0,0.0
1.0,138.0
333,332,0,'1',1,1,1,0.0,0.0,2,'            ',1,1,1.0,0,1.0,0,1.0,0,1.0,'            '
0.00074,0.02644,508.0
1.0,138.0,0.0,508.0,508.0,508.0,0,0,1.5,0.51,1.5,0.51,159,0,0.0,0.0,0.0
1.0,345.0
9,7,0,'1',1,1,1,0.0,0.0,2,'            ',1,1,1.0,0,1.0,0,1.0,0,1.0,'            '
0.00012,0.01362,900.0
1.0,13.8,0.0,900.0,900.0,900.0,0,0,1.5,0.51,1.5,0.51,159,0,0.0,0.0,0.0
1.0,345.0
224,220,0,'2',1,1,1,0.0,0.0,2,'            ',1,1,1.0,0,1.0,0,1.0,0,1.0,'            '
0.00043,0.02404,588.0
1.0,13.8,0.0,588.0,588.0,588.0,0,0,1.5,0.51,1.5,0.51,159,0,0.0,0.0,0.0
1.0,345.0
390,386,0,'1',1,1,1,0.0,0.0,2,'            ',1,1,1.0,0,1.0,0,1.0,0,1.0,'            '
0.00021,0.02728,389.0
1.0,13.8,0.0,389.0,389.0,389.0,0,0,1.5,0.51,1.5,0.51,159,0,0.0,0.0,0.0
1.0,345.0
396,386,0,'1',1,1,1,0.0,0.0,2,'            ',1,1,1.0,0,1.0,0,1.0,0,1.0,'            '
0.00015,0.02168,313.0
1.0,13.8,0.0,313.0,313.0,313.0,0,0,1.5,0.51,1.5,0.51,159,0,0.0,0.0,0.0
1.0,345.0
272,271,0,'1',1,1,1,0.0,0.0,2,'            ',1,1,1.0,0,1.0,0,1.0,0,1.0,'            '
0.00100618,0.03765,484.0
1.0,138.0,0.0,484.0,484.0,484.0,0,0,1.5,0.51,1.5,0.51,159,0,0.0,0.0,0.0
1.0,345.0
176,175,0,'1',1,1,1,0.0,0.0,2,'            ',1,1,1.0,0,1.0,0,1.0,0,1.0,'            '
0.00039,0.03857,273.0
1.0,138.0,0.0,273.0,273.0,273.0,0,0,1.5,0.51,1.5,0.51,159,0,0.0,0.0,0.0
1.0,345.0
250,246,0,'1',1,1,1,0.0,0.0,2,'            ',1,1,1.0,0,1.0,0,1.0,0,1.0,'            '
0.000410167,0.02016,628.0
1.0,13.8,0.0,628.0,628.0,628.0,0,0,1.5,0.51,1.5,0.51,159,0,0.0,0.0,0.0
1.0,345.0
408,407,0,'1',1,1,1,0.0,0.0,2,'            ',1,1,1.0,0,1.0,0,1.0,0,1.0,'            '
0.00036,0.01366,595.0
1.0,138.0,0.0,595.0,595.0,595.0,0,0,1.5,0.51,1.5,0.51,159,0,0.0,0.0,0.0
1.0,345.0
265,262,0,'1',1,1,1,0.0,0.0,2,'            ',1,1,1.0,0,1.0,0,1.0,0,1.0,'            '
0.00023,0.03379,241.0
1.0,13.8,0.0,241.0,241.0,241.0,0,0,1.5,0.51,1.5,0.51,159,0,0.0,0.0,0.0
1.0,345.0
255,253,0,'1',1,1,1,0.0,0.0,2,'            ',1,1,1.0,0,1.0,0,1.0,0,1.0,'            '
0.00273,0.10598,75.0
1.0,13.8,0.0,75.0,75.0,75.0,0,0,1.5,0.51,1.5,0.51,159,0,0.0,0.0,0.0
1.0,138.0
71,70,0,'1',1,1,1,0.0,0.0,2,'            ',1,1,1.0,0,1.0,0,1.0,0,1.0,'            '
0.00103,0.04472,133.0
1.0,13.8,0.0,133.0,133.0,133.0,0,0,1.5,0.51,1.5,0.51,159,0,0.0,0.0,0.0
1.0,138.0
482,479,0,'1',1,1,1,0.0,0.0,2,'            ',1,1,1.0,0,1.0,0,1.0,0,1.0,'            '
0.00123,0.03182,187.0
1.0,13.8,0.0,187.0,187.0,187.0,0,0,1.5,0.51,1.5,0.51,159,0,0.0,0.0,0.0
1.0,138.0
125,123,0,'1',1,1,1,0.0,0.0,2,'            ',1,1,1.0,0,1.0,0,1.0,0,1.0,'            '
0.00028,0.04064,346.0
1.0,13.8,0.0,346.0,346.0,346.0,0,0,1.5,0.51,1.5,0.51,159,0,0.0,0.0,0.0
1.0,345.0
387,386,0,'1',1,1,1,0.0,0.0,2,'            ',1,1,1.0,0,1.0,0,1.0,0,1.0,'            '
0.00016,0.01653,658.0
1.0,138.0,0.0,658.0,658.0,658.0,0,0,1.5,0.51,1.5,0.51,159,0,0.0,0.0,0.0
1.0,345.0
434,428,0,'1',1,1,1,0.0,0.0,2,'            ',1,1,1.0,0,1.0,0,1.0,0,1.0,'            '
0.0003,0.02264,231.0
1.0,13.8,0.0,231.0,231.0,231.0,0,0,1.5,0.51,1.5,0.51,159,0,0.0,0.0,0.0
1.0,345.0
437,428,0,'1',1,1,1,0.0,0.0,2,'            ',1,1,1.0,0,1.0,0,1.0,0,1.0,'            '
0.00014,0.01844,471.0
1.0,13.8,0.0,471.0,471.0,471.0,0,0,1.5,0.51,1.5,0.51,159,0,0.0,0.0,0.0
1.0,345.0
429,428,0,'1',1,1,1,0.0,0.0,2,'            ',1,1,1.0,0,1.0,0,1.0,0,1.0,'            '
0.00013,0.00868,646.0
1.0,138.0,0.0,646.0,646.0,646.0,0,0,1.5,0.51,1.5,0.51,159,0,0.0,0.0,0.0
1.0,345.0
389,386,0,'1',1,1,1,0.0,0.0,2,'            ',1,1,1.0,0,1.0,0,1.0,0,1.0,'            '
0.00043,0.03576,374.0
...